LTspice 24.1.9 for Windows
Circuit: C:\Users\Alvaro PC\Documents\GitHub\Elec-Pot\Module 4\Simulation\Simulation.net
Start Time: Thu Sep 25 16:11:00 2025
Options: reltol=1e-3 abstol=1e-12 vntol=1e-6  gmin=1e-12 itl1=300 itl2=100
solver = Normal
Maximum thread count: 2
tnom = 27
temp = 27
method = trap
Direct Newton iteration for .op point succeeded.
Warning: Simulation tolerance relaxed to achieve convergence from 8.2933260259350765e-04 to 8.2933260259350863e-04 seconds.
Warning: Simulation tolerance relaxed to achieve convergence from 8.2933260259350960e-04 to 8.2933260259351058e-04 seconds.
Warning: Simulation tolerance relaxed to achieve convergence from 8.4933255652680994e-04 to 8.4933255652681092e-04 seconds.
Warning: Simulation tolerance relaxed to achieve convergence from 8.4933255652682588e-04 to 8.4933255652682685e-04 seconds.
Warning: Simulation tolerance relaxed to achieve convergence from 8.4933255652686187e-04 to 8.4933255652686285e-04 seconds.
Warning: Simulation tolerance relaxed to achieve convergence from 8.4933255652687174e-04 to 8.4933255652687271e-04 seconds.
Warning: Simulation tolerance relaxed to achieve convergence from 8.5933253445434664e-04 to 8.5933253445434762e-04 seconds.
Warning: Simulation tolerance relaxed to achieve convergence from 8.5933253445437245e-04 to 8.5933253445437342e-04 seconds.
Warning: Simulation tolerance relaxed to achieve convergence from 8.5933253445437537e-04 to 8.5933253445437635e-04 seconds.
Warning: Simulation tolerance relaxed to achieve convergence from 8.5933253445450927e-04 to 8.5933253445451025e-04 seconds.
Warning: Simulation tolerance relaxed to achieve convergence from 8.5933253445483410e-04 to 8.5933253445483508e-04 seconds.
Warning: Simulation tolerance relaxed to achieve convergence from 8.5933253445483508e-04 to 8.5933253445483605e-04 seconds.
Warning: Simulation tolerance relaxed to achieve convergence from 8.5933253445553699e-04 to 8.5933253445553796e-04 seconds.
Warning: Simulation tolerance relaxed to achieve convergence from 8.5933253445553796e-04 to 8.5933253445553894e-04 seconds.
Warning: Simulation tolerance relaxed to achieve convergence from 8.5933253445553894e-04 to 8.5933253445553992e-04 seconds.
Warning: Simulation tolerance relaxed to achieve convergence from 8.5933253445554783e-04 to 8.5933253445554881e-04 seconds.
Warning: Simulation tolerance relaxed to achieve convergence from 8.5933253445563760e-04 to 8.5933253445563858e-04 seconds.
Warning: Simulation tolerance relaxed to achieve convergence from 8.5933253445570732e-04 to 8.5933253445570829e-04 seconds.
Warning: Simulation tolerance relaxed to achieve convergence from 8.5933253445576510e-04 to 8.5933253445576608e-04 seconds.
Warning: Simulation tolerance relaxed to achieve convergence from 8.5933253445580403e-04 to 8.5933253445580500e-04 seconds.
Warning: Simulation tolerance relaxed to achieve convergence from 8.5933253445582864e-04 to 8.5933253445582961e-04 seconds.
Warning: Simulation tolerance relaxed to achieve convergence from 8.5933253445598661e-04 to 8.5933253445598758e-04 seconds.
Warning: Simulation tolerance relaxed to achieve convergence from 8.5933253445598758e-04 to 8.5933253445598856e-04 seconds.
Warning: Simulation tolerance relaxed to achieve convergence from 8.6433252368975789e-04 to 8.6433252368975887e-04 seconds.
Warning: Simulation tolerance relaxed to achieve convergence from 8.6433252368976483e-04 to 8.6433252368976581e-04 seconds.
Warning: Simulation tolerance relaxed to achieve convergence from 8.6433252368981470e-04 to 8.6433252368981568e-04 seconds.
Warning: Simulation tolerance relaxed to achieve convergence from 8.6433252369046848e-04 to 8.6433252369046945e-04 seconds.
Warning: Simulation tolerance relaxed to achieve convergence from 8.6433252369047639e-04 to 8.6433252369047737e-04 seconds.
Warning: Simulation tolerance relaxed to achieve convergence from 8.6433252369067014e-04 to 8.6433252369067111e-04 seconds.
Warning: Simulation tolerance relaxed to achieve convergence from 8.6433252369075102e-04 to 8.6433252369075200e-04 seconds.
Warning: Simulation tolerance relaxed to achieve convergence from 8.6433252369075200e-04 to 8.6433252369075297e-04 seconds.
Warning: Simulation tolerance relaxed to achieve convergence from 8.6433252369075492e-04 to 8.6433252369075590e-04 seconds.
Warning: Simulation tolerance relaxed to achieve convergence from 8.6433252369075980e-04 to 8.6433252369076078e-04 seconds.
Warning: Simulation tolerance relaxed to achieve convergence from 8.6433252369079970e-04 to 8.6433252369080068e-04 seconds.
Warning: Simulation tolerance relaxed to achieve convergence from 8.6433252369080263e-04 to 8.6433252369080360e-04 seconds.
Warning: Simulation tolerance relaxed to achieve convergence from 8.6433252369123154e-04 to 8.6433252369123251e-04 seconds.
Warning: Simulation tolerance relaxed to achieve convergence from 8.6433252369123447e-04 to 8.6433252369123544e-04 seconds.
Warning: Simulation tolerance relaxed to achieve convergence from 8.6433252369126547e-04 to 8.6433252369126645e-04 seconds.
Warning: Simulation tolerance relaxed to achieve convergence from 8.6433252369126645e-04 to 8.6433252369126743e-04 seconds.
Warning: Simulation tolerance relaxed to achieve convergence from 8.6433252369148231e-04 to 8.6433252369148329e-04 seconds.
Warning: Simulation tolerance relaxed to achieve convergence from 8.6433252369148329e-04 to 8.6433252369148427e-04 seconds.
Warning: Simulation tolerance relaxed to achieve convergence from 8.7433250256017784e-04 to 8.7433250256017882e-04 seconds.
Warning: Simulation tolerance relaxed to achieve convergence from 8.7433250256019346e-04 to 8.7433250256019443e-04 seconds.
Warning: Simulation tolerance relaxed to achieve convergence from 8.7433250256019443e-04 to 8.7433250256019541e-04 seconds.
Warning: Simulation tolerance relaxed to achieve convergence from 8.7933249230968946e-04 to 8.7933249230969044e-04 seconds.
Warning: Simulation tolerance relaxed to achieve convergence from 8.8433248223152006e-04 to 8.8433248223152103e-04 seconds.
Warning: Simulation tolerance relaxed to achieve convergence from 8.8433248223152103e-04 to 8.8433248223152201e-04 seconds.
Warning: Simulation tolerance relaxed to achieve convergence from 8.8433248223152396e-04 to 8.8433248223152494e-04 seconds.
Warning: Simulation tolerance relaxed to achieve convergence from 8.8433248223152494e-04 to 8.8433248223152591e-04 seconds.
Warning: Simulation tolerance relaxed to achieve convergence from 8.8433248223153285e-04 to 8.8433248223153383e-04 seconds.
Warning: Simulation tolerance relaxed to achieve convergence from 8.8433248223158381e-04 to 8.8433248223158479e-04 seconds.
Warning: Simulation tolerance relaxed to achieve convergence from 8.8433248223158479e-04 to 8.8433248223158576e-04 seconds.
Warning: Simulation tolerance relaxed to achieve convergence from 8.8433248223158869e-04 to 8.8433248223158966e-04 seconds.
Warning: Simulation tolerance relaxed to achieve convergence from 8.8433248223162056e-04 to 8.8433248223162154e-04 seconds.
Warning: Simulation tolerance relaxed to achieve convergence from 8.8433248223278641e-04 to 8.8433248223278738e-04 seconds.
Warning: Simulation tolerance relaxed to achieve convergence from 8.8433248223284029e-04 to 8.8433248223284127e-04 seconds.
Warning: Simulation tolerance relaxed to achieve convergence from 8.8433248223284322e-04 to 8.8433248223284419e-04 seconds.
Warning: Simulation tolerance relaxed to achieve convergence from 8.8433248223285005e-04 to 8.8433248223285103e-04 seconds.
Warning: Simulation tolerance relaxed to achieve convergence from 8.8433248223285103e-04 to 8.8433248223285200e-04 seconds.
Warning: Simulation tolerance relaxed to achieve convergence from 8.8433248223297799e-04 to 8.8433248223297896e-04 seconds.
Warning: Simulation tolerance relaxed to achieve convergence from 8.8433248223443580e-04 to 8.8433248223443678e-04 seconds.
Warning: Simulation tolerance relaxed to achieve convergence from 8.8433248223444665e-04 to 8.8433248223444762e-04 seconds.
Warning: Simulation tolerance relaxed to achieve convergence from 8.8433248223471358e-04 to 8.8433248223471455e-04 seconds.
Warning: Simulation tolerance relaxed to achieve convergence from 8.8433248223471748e-04 to 8.8433248223471846e-04 seconds.
Warning: Simulation tolerance relaxed to achieve convergence from 8.8433248223472041e-04 to 8.8433248223472138e-04 seconds.
Warning: Simulation tolerance relaxed to achieve convergence from 8.8433248223472333e-04 to 8.8433248223472431e-04 seconds.
Warning: Simulation tolerance relaxed to achieve convergence from 8.8433248223472431e-04 to 8.8433248223472529e-04 seconds.
Warning: Simulation tolerance relaxed to achieve convergence from 8.8433248223472529e-04 to 8.8433248223472626e-04 seconds.
Warning: Simulation tolerance relaxed to achieve convergence from 8.8433248223472626e-04 to 8.8433248223472724e-04 seconds.
Warning: Simulation tolerance relaxed to achieve convergence from 8.8433248223472724e-04 to 8.8433248223472821e-04 seconds.
Warning: Simulation tolerance relaxed to achieve convergence from 8.8433248223472821e-04 to 8.8433248223472919e-04 seconds.
Warning: Simulation tolerance relaxed to achieve convergence from 8.8433248223472919e-04 to 8.8433248223473016e-04 seconds.
Warning: Simulation tolerance relaxed to achieve convergence from 8.8433248223473016e-04 to 8.8433248223473114e-04 seconds.
Warning: Simulation tolerance relaxed to achieve convergence from 8.8433248223473114e-04 to 8.8433248223473212e-04 seconds.
Warning: Simulation tolerance relaxed to achieve convergence from 8.8433248223473602e-04 to 8.8433248223473700e-04 seconds.
Warning: Simulation tolerance relaxed to achieve convergence from 8.8433248223475087e-04 to 8.8433248223475185e-04 seconds.
Warning: Simulation tolerance relaxed to achieve convergence from 8.8433248223475185e-04 to 8.8433248223475282e-04 seconds.
Warning: Simulation tolerance relaxed to achieve convergence from 8.8433248223475879e-04 to 8.8433248223475976e-04 seconds.
Warning: Simulation tolerance relaxed to achieve convergence from 8.8433248223591368e-04 to 8.8433248223591466e-04 seconds.
Warning: Simulation tolerance relaxed to achieve convergence from 8.8433248223601213e-04 to 8.8433248223601310e-04 seconds.
Warning: Simulation tolerance relaxed to achieve convergence from 8.8433248223602188e-04 to 8.8433248223602286e-04 seconds.
Warning: Simulation tolerance relaxed to achieve convergence from 8.8433248223617465e-04 to 8.8433248223617562e-04 seconds.
Warning: Simulation tolerance relaxed to achieve convergence from 8.8433248223620967e-04 to 8.8433248223621064e-04 seconds.
Warning: Simulation tolerance relaxed to achieve convergence from 8.8433248223621758e-04 to 8.8433248223621856e-04 seconds.
Warning: Simulation tolerance relaxed to achieve convergence from 8.8433248223621953e-04 to 8.8433248223622051e-04 seconds.
Warning: Simulation tolerance relaxed to achieve convergence from 8.8433248223625054e-04 to 8.8433248223625152e-04 seconds.
Warning: Simulation tolerance relaxed to achieve convergence from 8.8433248223626832e-04 to 8.8433248223626930e-04 seconds.
Warning: Simulation tolerance relaxed to achieve convergence from 8.8433248223632828e-04 to 8.8433248223632925e-04 seconds.
Warning: Simulation tolerance relaxed to achieve convergence from 8.8433248223642510e-04 to 8.8433248223642607e-04 seconds.
Warning: Simulation tolerance relaxed to achieve convergence from 8.8433248223665018e-04 to 8.8433248223665115e-04 seconds.
Warning: Simulation tolerance relaxed to achieve convergence from 8.8433248223665115e-04 to 8.8433248223665213e-04 seconds.
Warning: Simulation tolerance relaxed to achieve convergence from 8.8433248223668769e-04 to 8.8433248223668867e-04 seconds.
Warning: Simulation tolerance relaxed to achieve convergence from 8.8433248223668867e-04 to 8.8433248223668964e-04 seconds.
Warning: Simulation tolerance relaxed to achieve convergence from 8.8433248223668964e-04 to 8.8433248223669062e-04 seconds.
Warning: Simulation tolerance relaxed to achieve convergence from 8.8433248223669062e-04 to 8.8433248223669159e-04 seconds.
Warning: Simulation tolerance relaxed to achieve convergence from 8.8433248223669159e-04 to 8.8433248223669257e-04 seconds.
Warning: Simulation tolerance relaxed to achieve convergence from 8.8433248223669452e-04 to 8.8433248223669550e-04 seconds.
Warning: Simulation tolerance relaxed to achieve convergence from 8.8433248223670233e-04 to 8.8433248223670330e-04 seconds.
Warning: Simulation tolerance relaxed to achieve convergence from 8.8433248223670526e-04 to 8.8433248223670623e-04 seconds.
Warning: Simulation tolerance relaxed to achieve convergence from 8.8433248223671219e-04 to 8.8433248223671317e-04 seconds.
Warning: Simulation tolerance relaxed to achieve convergence from 8.8433248223677920e-04 to 8.8433248223678017e-04 seconds.
Warning: Simulation tolerance relaxed to achieve convergence from 8.8433248223678017e-04 to 8.8433248223678115e-04 seconds.
Warning: Simulation tolerance relaxed to achieve convergence from 8.8433248223678115e-04 to 8.8433248223678213e-04 seconds.
Warning: Simulation tolerance relaxed to achieve convergence from 8.8433248223680598e-04 to 8.8433248223680695e-04 seconds.
Warning: Simulation tolerance relaxed to achieve convergence from 8.8433248223687678e-04 to 8.8433248223687775e-04 seconds.
Warning: Simulation tolerance relaxed to achieve convergence from 8.8433248223687873e-04 to 8.8433248223687970e-04 seconds.
Warning: Simulation tolerance relaxed to achieve convergence from 8.8433248223688556e-04 to 8.8433248223688653e-04 seconds.
Warning: Simulation tolerance relaxed to achieve convergence from 8.8433248223688653e-04 to 8.8433248223688751e-04 seconds.
Warning: Simulation tolerance relaxed to achieve convergence from 8.8433248223689044e-04 to 8.8433248223689141e-04 seconds.
Warning: Simulation tolerance relaxed to achieve convergence from 8.8433248223692134e-04 to 8.8433248223692231e-04 seconds.
Warning: Simulation tolerance relaxed to achieve convergence from 8.9433246254573106e-04 to 8.9433246254573204e-04 seconds.
Warning: Simulation tolerance relaxed to achieve convergence from 8.9433246254582203e-04 to 8.9433246254582300e-04 seconds.
Warning: Simulation tolerance relaxed to achieve convergence from 8.9433246254582300e-04 to 8.9433246254582398e-04 seconds.
Warning: Simulation tolerance relaxed to achieve convergence from 8.9433246254583287e-04 to 8.9433246254583384e-04 seconds.
Warning: Simulation tolerance relaxed to achieve convergence from 8.9433246254584176e-04 to 8.9433246254584273e-04 seconds.
Warning: Simulation tolerance relaxed to achieve convergence from 8.9433246254584566e-04 to 8.9433246254584664e-04 seconds.
Warning: Simulation tolerance relaxed to achieve convergence from 8.9433246254591765e-04 to 8.9433246254591863e-04 seconds.
Warning: Simulation tolerance relaxed to achieve convergence from 8.9433246254638852e-04 to 8.9433246254638950e-04 seconds.
Warning: Simulation tolerance relaxed to achieve convergence from 8.9433246254641530e-04 to 8.9433246254641628e-04 seconds.
Warning: Simulation tolerance relaxed to achieve convergence from 8.9433246254641628e-04 to 8.9433246254641725e-04 seconds.
Warning: Simulation tolerance relaxed to achieve convergence from 8.9933245298480990e-04 to 8.9933245298481088e-04 seconds.
Warning: Simulation tolerance relaxed to achieve convergence from 8.9933245298481478e-04 to 8.9933245298481576e-04 seconds.
Warning: Simulation tolerance relaxed to achieve convergence from 8.9933245298481576e-04 to 8.9933245298481673e-04 seconds.
Warning: Simulation tolerance relaxed to achieve convergence from 8.9933245298482161e-04 to 8.9933245298482259e-04 seconds.
Warning: Simulation tolerance relaxed to achieve convergence from 8.9933245298482551e-04 to 8.9933245298482649e-04 seconds.
Warning: Simulation tolerance relaxed to achieve convergence from 8.9933245298483440e-04 to 8.9933245298483538e-04 seconds.
Warning: Simulation tolerance relaxed to achieve convergence from 8.9933245298483538e-04 to 8.9933245298483636e-04 seconds.
Warning: Simulation tolerance relaxed to achieve convergence from 8.9933245298504138e-04 to 8.9933245298504235e-04 seconds.
Warning: Simulation tolerance relaxed to achieve convergence from 8.9933245298504333e-04 to 8.9933245298504431e-04 seconds.
Warning: Simulation tolerance relaxed to achieve convergence from 8.9933245298507423e-04 to 8.9933245298507521e-04 seconds.
Warning: Simulation tolerance relaxed to achieve convergence from 8.9933245298508117e-04 to 8.9933245298508214e-04 seconds.
Warning: Simulation tolerance relaxed to achieve convergence from 8.9933245298508800e-04 to 8.9933245298508897e-04 seconds.
Warning: Simulation tolerance relaxed to achieve convergence from 8.9933245298530267e-04 to 8.9933245298530365e-04 seconds.
Warning: Simulation tolerance relaxed to achieve convergence from 8.9933245298530560e-04 to 8.9933245298530657e-04 seconds.
Warning: Simulation tolerance relaxed to achieve convergence from 8.9933245298533140e-04 to 8.9933245298533238e-04 seconds.
Warning: Simulation tolerance relaxed to achieve convergence from 8.9933245298543234e-04 to 8.9933245298543332e-04 seconds.
Warning: Simulation tolerance relaxed to achieve convergence from 8.9933245298545587e-04 to 8.9933245298545684e-04 seconds.
Warning: Simulation tolerance relaxed to achieve convergence from 8.9933245298545684e-04 to 8.9933245298545782e-04 seconds.
Warning: Simulation tolerance relaxed to achieve convergence from 8.9933245298546964e-04 to 8.9933245298547061e-04 seconds.
Warning: Simulation tolerance relaxed to achieve convergence from 8.9933245298547354e-04 to 8.9933245298547452e-04 seconds.
Warning: Simulation tolerance relaxed to achieve convergence from 9.0433244351965176e-04 to 9.0433244351965274e-04 seconds.
Warning: Simulation tolerance relaxed to achieve convergence from 9.0433244351965274e-04 to 9.0433244351965372e-04 seconds.
Warning: Simulation tolerance relaxed to achieve convergence from 9.0433244351970066e-04 to 9.0433244351970164e-04 seconds.
Warning: Simulation tolerance relaxed to achieve convergence from 9.0433244351983738e-04 to 9.0433244351983836e-04 seconds.
Warning: Simulation tolerance relaxed to achieve convergence from 9.0433244351983836e-04 to 9.0433244351983933e-04 seconds.
Warning: Simulation tolerance relaxed to achieve convergence from 9.0433244351988725e-04 to 9.0433244351988823e-04 seconds.
Warning: Simulation tolerance relaxed to achieve convergence from 9.0433244352013619e-04 to 9.0433244352013716e-04 seconds.
Warning: Simulation tolerance relaxed to achieve convergence from 9.0433244352016394e-04 to 9.0433244352016492e-04 seconds.
Warning: Simulation tolerance relaxed to achieve convergence from 9.0433244352016687e-04 to 9.0433244352016785e-04 seconds.
Warning: Simulation tolerance relaxed to achieve convergence from 9.0433244352016980e-04 to 9.0433244352017077e-04 seconds.
Warning: Simulation tolerance relaxed to achieve convergence from 9.0433244352017272e-04 to 9.0433244352017370e-04 seconds.
Warning: Simulation tolerance relaxed to achieve convergence from 9.0433244352017468e-04 to 9.0433244352017565e-04 seconds.
Warning: Simulation tolerance relaxed to achieve convergence from 9.0433244352020753e-04 to 9.0433244352020850e-04 seconds.
Warning: Simulation tolerance relaxed to achieve convergence from 9.0433244352077662e-04 to 9.0433244352077760e-04 seconds.
Warning: Simulation tolerance relaxed to achieve convergence from 9.0433244352084352e-04 to 9.0433244352084450e-04 seconds.
Warning: Simulation tolerance relaxed to achieve convergence from 9.0433244352085133e-04 to 9.0433244352085230e-04 seconds.
Warning: Simulation tolerance relaxed to achieve convergence from 9.0433244352086813e-04 to 9.0433244352086911e-04 seconds.
Warning: Simulation tolerance relaxed to achieve convergence from 9.0433244352087301e-04 to 9.0433244352087399e-04 seconds.
Warning: Simulation tolerance relaxed to achieve convergence from 9.0433244352092494e-04 to 9.0433244352092592e-04 seconds.
Warning: Simulation tolerance relaxed to achieve convergence from 9.0433244352106762e-04 to 9.0433244352106860e-04 seconds.
Warning: Simulation tolerance relaxed to achieve convergence from 9.0433244352107554e-04 to 9.0433244352107651e-04 seconds.
Warning: Simulation tolerance relaxed to achieve convergence from 9.0433244352110449e-04 to 9.0433244352110546e-04 seconds.
Warning: Simulation tolerance relaxed to achieve convergence from 9.0433244352110546e-04 to 9.0433244352110644e-04 seconds.
Warning: Simulation tolerance relaxed to achieve convergence from 9.0433244352116249e-04 to 9.0433244352116347e-04 seconds.
Warning: Simulation tolerance relaxed to achieve convergence from 9.0433244352116835e-04 to 9.0433244352116932e-04 seconds.
Warning: Simulation tolerance relaxed to achieve convergence from 9.0433244352140438e-04 to 9.0433244352140535e-04 seconds.
Warning: Simulation tolerance relaxed to achieve convergence from 9.0433244352140633e-04 to 9.0433244352140731e-04 seconds.
Warning: Simulation tolerance relaxed to achieve convergence from 9.0433244352168117e-04 to 9.0433244352168215e-04 seconds.
Warning: Simulation tolerance relaxed to achieve convergence from 9.0433244352168215e-04 to 9.0433244352168313e-04 seconds.
Warning: Simulation tolerance relaxed to achieve convergence from 9.0433244352192425e-04 to 9.0433244352192523e-04 seconds.
Warning: Simulation tolerance relaxed to achieve convergence from 9.0433244352336310e-04 to 9.0433244352336407e-04 seconds.
Warning: Simulation tolerance relaxed to achieve convergence from 9.0433244352339898e-04 to 9.0433244352339996e-04 seconds.
Warning: Simulation tolerance relaxed to achieve convergence from 9.0433244352346198e-04 to 9.0433244352346295e-04 seconds.
Warning: Simulation tolerance relaxed to achieve convergence from 9.0433244352346295e-04 to 9.0433244352346393e-04 seconds.
Warning: Simulation tolerance relaxed to achieve convergence from 9.0433244352346393e-04 to 9.0433244352346490e-04 seconds.
Warning: Simulation tolerance relaxed to achieve convergence from 9.0433244352495492e-04 to 9.0433244352495590e-04 seconds.
Warning: Simulation tolerance relaxed to achieve convergence from 9.0433244352495785e-04 to 9.0433244352495883e-04 seconds.
Warning: Simulation tolerance relaxed to achieve convergence from 9.0433244352504231e-04 to 9.0433244352504329e-04 seconds.
Warning: Simulation tolerance relaxed to achieve convergence from 9.0433244352505608e-04 to 9.0433244352505705e-04 seconds.
Warning: Simulation tolerance relaxed to achieve convergence from 9.0433244352505705e-04 to 9.0433244352505803e-04 seconds.
Warning: Simulation tolerance relaxed to achieve convergence from 9.0433244352505998e-04 to 9.0433244352506096e-04 seconds.
Warning: Simulation tolerance relaxed to achieve convergence from 9.0433244352510498e-04 to 9.0433244352510595e-04 seconds.
Warning: Simulation tolerance relaxed to achieve convergence from 9.0433244352513598e-04 to 9.0433244352513696e-04 seconds.
Warning: Simulation tolerance relaxed to achieve convergence from 9.0433244352514477e-04 to 9.0433244352514574e-04 seconds.
Warning: Simulation tolerance relaxed to achieve convergence from 9.0433244352517577e-04 to 9.0433244352517675e-04 seconds.
Warning: Simulation tolerance relaxed to achieve convergence from 9.0433244352518467e-04 to 9.0433244352518564e-04 seconds.
Warning: Simulation tolerance relaxed to achieve convergence from 9.0433244352518564e-04 to 9.0433244352518662e-04 seconds.
Warning: Simulation tolerance relaxed to achieve convergence from 9.0933243439352506e-04 to 9.0933243439352603e-04 seconds.
Warning: Simulation tolerance relaxed to achieve convergence from 9.0933243439356973e-04 to 9.0933243439357070e-04 seconds.
Warning: Simulation tolerance relaxed to achieve convergence from 9.0933243439362329e-04 to 9.0933243439362426e-04 seconds.
Warning: Simulation tolerance relaxed to achieve convergence from 9.0933243439362426e-04 to 9.0933243439362524e-04 seconds.
Warning: Simulation tolerance relaxed to achieve convergence from 9.0933243439362524e-04 to 9.0933243439362621e-04 seconds.
Warning: Simulation tolerance relaxed to achieve convergence from 9.0933243439362621e-04 to 9.0933243439362719e-04 seconds.
Warning: Simulation tolerance relaxed to achieve convergence from 9.0933243439366015e-04 to 9.0933243439366112e-04 seconds.
Warning: Simulation tolerance relaxed to achieve convergence from 9.0933243439373398e-04 to 9.0933243439373496e-04 seconds.
Warning: Simulation tolerance relaxed to achieve convergence from 9.0933243439375079e-04 to 9.0933243439375176e-04 seconds.
Warning: Simulation tolerance relaxed to achieve convergence from 9.0933243439376868e-04 to 9.0933243439376965e-04 seconds.
Warning: Simulation tolerance relaxed to achieve convergence from 9.0933243439376965e-04 to 9.0933243439377063e-04 seconds.
Warning: Simulation tolerance relaxed to achieve convergence from 9.0933243439377063e-04 to 9.0933243439377160e-04 seconds.
Warning: Simulation tolerance relaxed to achieve convergence from 9.0933243439377757e-04 to 9.0933243439377854e-04 seconds.
Warning: Simulation tolerance relaxed to achieve convergence from 9.0933243439392253e-04 to 9.0933243439392350e-04 seconds.
Warning: Simulation tolerance relaxed to achieve convergence from 9.0933243439395408e-04 to 9.0933243439395505e-04 seconds.
Warning: Simulation tolerance relaxed to achieve convergence from 9.0933243439396297e-04 to 9.0933243439396394e-04 seconds.
Warning: Simulation tolerance relaxed to achieve convergence from 9.0933243439396492e-04 to 9.0933243439396589e-04 seconds.
Warning: Simulation tolerance relaxed to achieve convergence from 9.0933243439397283e-04 to 9.0933243439397381e-04 seconds.
Warning: Simulation tolerance relaxed to achieve convergence from 9.0933243439397381e-04 to 9.0933243439397478e-04 seconds.
Warning: Simulation tolerance relaxed to achieve convergence from 9.0933243439412842e-04 to 9.0933243439412939e-04 seconds.
Warning: Simulation tolerance relaxed to achieve convergence from 9.0933243439412939e-04 to 9.0933243439413037e-04 seconds.
Warning: Simulation tolerance relaxed to achieve convergence from 9.0933243439414208e-04 to 9.0933243439414305e-04 seconds.
Warning: Simulation tolerance relaxed to achieve convergence from 9.0933243439569400e-04 to 9.0933243439569498e-04 seconds.
Warning: Simulation tolerance relaxed to achieve convergence from 9.0933243439569498e-04 to 9.0933243439569596e-04 seconds.
Warning: Simulation tolerance relaxed to achieve convergence from 9.0933243439569693e-04 to 9.0933243439569791e-04 seconds.
Warning: Simulation tolerance relaxed to achieve convergence from 9.0933243439576545e-04 to 9.0933243439576643e-04 seconds.
Warning: Simulation tolerance relaxed to achieve convergence from 9.0933243439677029e-04 to 9.0933243439677127e-04 seconds.
Warning: Simulation tolerance relaxed to achieve convergence from 9.0933243439677821e-04 to 9.0933243439677918e-04 seconds.
Warning: Simulation tolerance relaxed to achieve convergence from 9.0933243439678016e-04 to 9.0933243439678113e-04 seconds.
Warning: Simulation tolerance relaxed to achieve convergence from 9.1433242523956287e-04 to 9.1433242523956384e-04 seconds.
Warning: Simulation tolerance relaxed to achieve convergence from 9.1433242523956482e-04 to 9.1433242523956580e-04 seconds.
Warning: Simulation tolerance relaxed to achieve convergence from 9.1433242523957176e-04 to 9.1433242523957273e-04 seconds.
Warning: Simulation tolerance relaxed to achieve convergence from 9.1433242523957761e-04 to 9.1433242523957859e-04 seconds.
Warning: Simulation tolerance relaxed to achieve convergence from 9.1433242523958054e-04 to 9.1433242523958152e-04 seconds.
Warning: Simulation tolerance relaxed to achieve convergence from 9.1433242523964635e-04 to 9.1433242523964733e-04 seconds.
Warning: Simulation tolerance relaxed to achieve convergence from 9.1433242523971227e-04 to 9.1433242523971325e-04 seconds.
Warning: Simulation tolerance relaxed to achieve convergence from 9.1433242523972116e-04 to 9.1433242523972214e-04 seconds.
Warning: Simulation tolerance relaxed to achieve convergence from 9.1433242523974209e-04 to 9.1433242523974306e-04 seconds.
Warning: Simulation tolerance relaxed to achieve convergence from 9.1433242523975596e-04 to 9.1433242523975694e-04 seconds.
Warning: Simulation tolerance relaxed to achieve convergence from 9.1433242523975694e-04 to 9.1433242523975792e-04 seconds.
Warning: Simulation tolerance relaxed to achieve convergence from 9.1433242523975792e-04 to 9.1433242523975889e-04 seconds.
Warning: Simulation tolerance relaxed to achieve convergence from 9.1433242523975889e-04 to 9.1433242523975987e-04 seconds.
Warning: Simulation tolerance relaxed to achieve convergence from 9.1433242523975987e-04 to 9.1433242523976084e-04 seconds.
Warning: Simulation tolerance relaxed to achieve convergence from 9.1433242523976475e-04 to 9.1433242523976572e-04 seconds.
Warning: Simulation tolerance relaxed to achieve convergence from 9.1433242523978762e-04 to 9.1433242523978860e-04 seconds.
Warning: Simulation tolerance relaxed to achieve convergence from 9.1433242523987848e-04 to 9.1433242523987946e-04 seconds.
Warning: Simulation tolerance relaxed to achieve convergence from 9.1433242523991448e-04 to 9.1433242523991545e-04 seconds.
Warning: Simulation tolerance relaxed to achieve convergence from 9.1433242523993638e-04 to 9.1433242523993735e-04 seconds.
Warning: Simulation tolerance relaxed to achieve convergence from 9.1433242523993930e-04 to 9.1433242523994028e-04 seconds.
Warning: Simulation tolerance relaxed to achieve convergence from 9.1433242523996023e-04 to 9.1433242523996120e-04 seconds.
Warning: Simulation tolerance relaxed to achieve convergence from 9.1433242523996218e-04 to 9.1433242523996316e-04 seconds.
Warning: Simulation tolerance relaxed to achieve convergence from 9.1433242523996316e-04 to 9.1433242523996413e-04 seconds.
Warning: Simulation tolerance relaxed to achieve convergence from 9.1433242523997009e-04 to 9.1433242523997107e-04 seconds.
Warning: Simulation tolerance relaxed to achieve convergence from 9.1433242523997205e-04 to 9.1433242523997302e-04 seconds.
Warning: Simulation tolerance relaxed to achieve convergence from 9.1433242523997497e-04 to 9.1433242523997595e-04 seconds.
Warning: Simulation tolerance relaxed to achieve convergence from 9.1433242523997790e-04 to 9.1433242523997888e-04 seconds.
Warning: Simulation tolerance relaxed to achieve convergence from 9.1433242523997985e-04 to 9.1433242523998083e-04 seconds.
Warning: Simulation tolerance relaxed to achieve convergence from 9.1433242523998278e-04 to 9.1433242523998376e-04 seconds.
Warning: Simulation tolerance relaxed to achieve convergence from 9.1433242523999362e-04 to 9.1433242523999460e-04 seconds.
Warning: Simulation tolerance relaxed to achieve convergence from 9.1433242524009651e-04 to 9.1433242524009749e-04 seconds.
Warning: Simulation tolerance relaxed to achieve convergence from 9.1433242524009749e-04 to 9.1433242524009846e-04 seconds.
Warning: Simulation tolerance relaxed to achieve convergence from 9.1433242524009846e-04 to 9.1433242524009944e-04 seconds.
Warning: Simulation tolerance relaxed to achieve convergence from 9.1433242524010735e-04 to 9.1433242524010833e-04 seconds.
Warning: Simulation tolerance relaxed to achieve convergence from 9.1433242524046243e-04 to 9.1433242524046341e-04 seconds.
Warning: Simulation tolerance relaxed to achieve convergence from 9.1433242524046341e-04 to 9.1433242524046438e-04 seconds.
Warning: Simulation tolerance relaxed to achieve convergence from 9.1433242524046438e-04 to 9.1433242524046536e-04 seconds.
Warning: Simulation tolerance relaxed to achieve convergence from 9.1433242524047132e-04 to 9.1433242524047230e-04 seconds.
Warning: Simulation tolerance relaxed to achieve convergence from 9.1433242524047826e-04 to 9.1433242524047924e-04 seconds.
Warning: Simulation tolerance relaxed to achieve convergence from 9.1433242524054808e-04 to 9.1433242524054906e-04 seconds.
Warning: Simulation tolerance relaxed to achieve convergence from 9.1433242524055101e-04 to 9.1433242524055199e-04 seconds.
Warning: Simulation tolerance relaxed to achieve convergence from 9.1433242524055199e-04 to 9.1433242524055296e-04 seconds.
Warning: Simulation tolerance relaxed to achieve convergence from 9.1433242524056380e-04 to 9.1433242524056478e-04 seconds.
Warning: Simulation tolerance relaxed to achieve convergence from 9.1433242524057074e-04 to 9.1433242524057172e-04 seconds.
Warning: Simulation tolerance relaxed to achieve convergence from 9.1433242524057269e-04 to 9.1433242524057367e-04 seconds.
Warning: Simulation tolerance relaxed to achieve convergence from 9.1433242524057660e-04 to 9.1433242524057757e-04 seconds.
Warning: Simulation tolerance relaxed to achieve convergence from 9.1433242524064544e-04 to 9.1433242524064642e-04 seconds.
Warning: Simulation tolerance relaxed to achieve convergence from 9.1433242524073663e-04 to 9.1433242524073760e-04 seconds.
Warning: Simulation tolerance relaxed to achieve convergence from 9.1433242524075744e-04 to 9.1433242524075842e-04 seconds.
Warning: Simulation tolerance relaxed to achieve convergence from 9.1433242524091118e-04 to 9.1433242524091216e-04 seconds.
Warning: Simulation tolerance relaxed to achieve convergence from 9.1433242524093406e-04 to 9.1433242524093503e-04 seconds.
Warning: Simulation tolerance relaxed to achieve convergence from 9.1433242524093503e-04 to 9.1433242524093601e-04 seconds.
Warning: Simulation tolerance relaxed to achieve convergence from 9.1433242524093991e-04 to 9.1433242524094089e-04 seconds.
Warning: Simulation tolerance relaxed to achieve convergence from 9.1433242524095975e-04 to 9.1433242524096073e-04 seconds.
Warning: Simulation tolerance relaxed to achieve convergence from 9.1433242524096073e-04 to 9.1433242524096171e-04 seconds.
Warning: Simulation tolerance relaxed to achieve convergence from 9.1433242524096561e-04 to 9.1433242524096659e-04 seconds.
Warning: Simulation tolerance relaxed to achieve convergence from 9.1433242524096756e-04 to 9.1433242524096854e-04 seconds.
Warning: Simulation tolerance relaxed to achieve convergence from 9.1433242524097548e-04 to 9.1433242524097645e-04 seconds.
Warning: Simulation tolerance relaxed to achieve convergence from 9.1433242524103955e-04 to 9.1433242524104053e-04 seconds.
Warning: Simulation tolerance relaxed to achieve convergence from 9.1433242524106536e-04 to 9.1433242524106633e-04 seconds.
Warning: Simulation tolerance relaxed to achieve convergence from 9.1433242524106828e-04 to 9.1433242524106926e-04 seconds.
Warning: Simulation tolerance relaxed to achieve convergence from 9.1433242524107023e-04 to 9.1433242524107121e-04 seconds.
Warning: Simulation tolerance relaxed to achieve convergence from 9.1433242524110222e-04 to 9.1433242524110319e-04 seconds.
Warning: Simulation tolerance relaxed to achieve convergence from 9.1433242524110515e-04 to 9.1433242524110612e-04 seconds.
Warning: Simulation tolerance relaxed to achieve convergence from 9.1433242524111501e-04 to 9.1433242524111599e-04 seconds.
Warning: Simulation tolerance relaxed to achieve convergence from 9.1433242524113572e-04 to 9.1433242524113670e-04 seconds.
Warning: Simulation tolerance relaxed to achieve convergence from 9.1433242524115751e-04 to 9.1433242524115849e-04 seconds.
Warning: Simulation tolerance relaxed to achieve convergence from 9.1433242524116239e-04 to 9.1433242524116337e-04 seconds.
Warning: Simulation tolerance relaxed to achieve convergence from 9.1433242524116337e-04 to 9.1433242524116434e-04 seconds.
Warning: Simulation tolerance relaxed to achieve convergence from 9.1433242524118722e-04 to 9.1433242524118820e-04 seconds.
Warning: Simulation tolerance relaxed to achieve convergence from 9.1433242524120999e-04 to 9.1433242524121096e-04 seconds.
Warning: Simulation tolerance relaxed to achieve convergence from 9.1433242524121975e-04 to 9.1433242524122072e-04 seconds.
Warning: Simulation tolerance relaxed to achieve convergence from 9.1433242524198107e-04 to 9.1433242524198205e-04 seconds.
Warning: Simulation tolerance relaxed to achieve convergence from 9.1433242524201609e-04 to 9.1433242524201707e-04 seconds.
Warning: Simulation tolerance relaxed to achieve convergence from 9.1433242524201707e-04 to 9.1433242524201804e-04 seconds.
Warning: Simulation tolerance relaxed to achieve convergence from 9.1433242524202097e-04 to 9.1433242524202195e-04 seconds.
Warning: Simulation tolerance relaxed to achieve convergence from 9.1433242524202683e-04 to 9.1433242524202780e-04 seconds.
Warning: Simulation tolerance relaxed to achieve convergence from 9.1433242524202780e-04 to 9.1433242524202878e-04 seconds.
Warning: Simulation tolerance relaxed to achieve convergence from 9.1433242524205773e-04 to 9.1433242524205870e-04 seconds.
Warning: Simulation tolerance relaxed to achieve convergence from 9.1433242524205870e-04 to 9.1433242524205968e-04 seconds.
Warning: Simulation tolerance relaxed to achieve convergence from 9.1433242524207854e-04 to 9.1433242524207952e-04 seconds.
Warning: Simulation tolerance relaxed to achieve convergence from 9.1433242524207952e-04 to 9.1433242524208049e-04 seconds.
Warning: Simulation tolerance relaxed to achieve convergence from 9.1433242524208049e-04 to 9.1433242524208147e-04 seconds.
Warning: Simulation tolerance relaxed to achieve convergence from 9.1433242524211150e-04 to 9.1433242524211248e-04 seconds.
Warning: Simulation tolerance relaxed to achieve convergence from 9.1433242524218859e-04 to 9.1433242524218957e-04 seconds.
Warning: Simulation tolerance relaxed to achieve convergence from 9.1433242524250463e-04 to 9.1433242524250561e-04 seconds.
Warning: Simulation tolerance relaxed to achieve convergence from 9.1433242524250561e-04 to 9.1433242524250659e-04 seconds.
Warning: Simulation tolerance relaxed to achieve convergence from 9.1433242524251255e-04 to 9.1433242524251352e-04 seconds.
Warning: Simulation tolerance relaxed to achieve convergence from 9.1433242524251352e-04 to 9.1433242524251450e-04 seconds.
Warning: Simulation tolerance relaxed to achieve convergence from 9.1433242524252144e-04 to 9.1433242524252242e-04 seconds.
Warning: Simulation tolerance relaxed to achieve convergence from 9.1433242524252242e-04 to 9.1433242524252339e-04 seconds.
Warning: Simulation tolerance relaxed to achieve convergence from 9.1433242524252339e-04 to 9.1433242524252437e-04 seconds.
Warning: Simulation tolerance relaxed to achieve convergence from 9.1433242524252437e-04 to 9.1433242524252534e-04 seconds.
Warning: Simulation tolerance relaxed to achieve convergence from 9.1433242524252632e-04 to 9.1433242524252729e-04 seconds.
Warning: Simulation tolerance relaxed to achieve convergence from 9.1433242524252925e-04 to 9.1433242524253022e-04 seconds.
Warning: Simulation tolerance relaxed to achieve convergence from 9.1433242524255787e-04 to 9.1433242524255884e-04 seconds.
Warning: Simulation tolerance relaxed to achieve convergence from 9.1433242524255884e-04 to 9.1433242524255982e-04 seconds.
Warning: Simulation tolerance relaxed to achieve convergence from 9.1433242524256080e-04 to 9.1433242524256177e-04 seconds.
Warning: Simulation tolerance relaxed to achieve convergence from 9.1433242524261566e-04 to 9.1433242524261663e-04 seconds.
Warning: Simulation tolerance relaxed to achieve convergence from 9.1433242524263159e-04 to 9.1433242524263257e-04 seconds.
Warning: Simulation tolerance relaxed to achieve convergence from 9.1433242524263257e-04 to 9.1433242524263355e-04 seconds.
Warning: Simulation tolerance relaxed to achieve convergence from 9.1433242524263355e-04 to 9.1433242524263452e-04 seconds.
Warning: Simulation tolerance relaxed to achieve convergence from 9.1433242524263452e-04 to 9.1433242524263550e-04 seconds.
Warning: Simulation tolerance relaxed to achieve convergence from 9.1433242524264341e-04 to 9.1433242524264439e-04 seconds.
Warning: Simulation tolerance relaxed to achieve convergence from 9.1433242524267323e-04 to 9.1433242524267420e-04 seconds.
Warning: Simulation tolerance relaxed to achieve convergence from 9.1433242524268114e-04 to 9.1433242524268212e-04 seconds.
Warning: Simulation tolerance relaxed to achieve convergence from 9.1433242524275313e-04 to 9.1433242524275411e-04 seconds.
Warning: Simulation tolerance relaxed to achieve convergence from 9.1433242524279910e-04 to 9.1433242524280008e-04 seconds.
Warning: Simulation tolerance relaxed to achieve convergence from 9.1433242524283412e-04 to 9.1433242524283510e-04 seconds.
Warning: Simulation tolerance relaxed to achieve convergence from 9.1433242524283607e-04 to 9.1433242524283705e-04 seconds.
Warning: Simulation tolerance relaxed to achieve convergence from 9.1433242524283705e-04 to 9.1433242524283803e-04 seconds.
Warning: Simulation tolerance relaxed to achieve convergence from 9.1433242524284095e-04 to 9.1433242524284193e-04 seconds.
Warning: Simulation tolerance relaxed to achieve convergence from 9.1433242524284193e-04 to 9.1433242524284291e-04 seconds.
Warning: Simulation tolerance relaxed to achieve convergence from 9.1433242524285689e-04 to 9.1433242524285787e-04 seconds.
Warning: Simulation tolerance relaxed to achieve convergence from 9.1433242524285884e-04 to 9.1433242524285982e-04 seconds.
Warning: Simulation tolerance relaxed to achieve convergence from 9.1433242524288562e-04 to 9.1433242524288660e-04 seconds.
Warning: Simulation tolerance relaxed to achieve convergence from 9.1433242524288660e-04 to 9.1433242524288757e-04 seconds.
Warning: Simulation tolerance relaxed to achieve convergence from 9.1433242524288757e-04 to 9.1433242524288855e-04 seconds.
Warning: Simulation tolerance relaxed to achieve convergence from 9.1433242524289451e-04 to 9.1433242524289549e-04 seconds.
Warning: Simulation tolerance relaxed to achieve convergence from 9.1433242524289744e-04 to 9.1433242524289842e-04 seconds.
Warning: Simulation tolerance relaxed to achieve convergence from 9.1433242524290926e-04 to 9.1433242524291023e-04 seconds.
Warning: Simulation tolerance relaxed to achieve convergence from 9.1433242524310517e-04 to 9.1433242524310615e-04 seconds.
Warning: Simulation tolerance relaxed to achieve convergence from 9.1433242524310713e-04 to 9.1433242524310810e-04 seconds.
Warning: Simulation tolerance relaxed to achieve convergence from 9.1433242524311797e-04 to 9.1433242524311894e-04 seconds.
Warning: Simulation tolerance relaxed to achieve convergence from 9.1433242524311894e-04 to 9.1433242524311992e-04 seconds.
Warning: Simulation tolerance relaxed to achieve convergence from 9.1433242524313987e-04 to 9.1433242524314084e-04 seconds.
Warning: Simulation tolerance relaxed to achieve convergence from 9.1433242524325501e-04 to 9.1433242524325599e-04 seconds.
Warning: Simulation tolerance relaxed to achieve convergence from 9.1433242524326780e-04 to 9.1433242524326878e-04 seconds.
Warning: Simulation tolerance relaxed to achieve convergence from 9.1433242524327767e-04 to 9.1433242524327865e-04 seconds.
Warning: Simulation tolerance relaxed to achieve convergence from 9.1433242524327962e-04 to 9.1433242524328060e-04 seconds.
Warning: Simulation tolerance relaxed to achieve convergence from 9.1433242524328060e-04 to 9.1433242524328157e-04 seconds.
Warning: Simulation tolerance relaxed to achieve convergence from 9.1433242524328157e-04 to 9.1433242524328255e-04 seconds.
Warning: Simulation tolerance relaxed to achieve convergence from 9.1433242524328255e-04 to 9.1433242524328353e-04 seconds.
Warning: Simulation tolerance relaxed to achieve convergence from 9.1433242524328548e-04 to 9.1433242524328645e-04 seconds.
Warning: Simulation tolerance relaxed to achieve convergence from 9.1433242524328645e-04 to 9.1433242524328743e-04 seconds.
Warning: Simulation tolerance relaxed to achieve convergence from 9.1433242524328743e-04 to 9.1433242524328840e-04 seconds.
Warning: Simulation tolerance relaxed to achieve convergence from 9.1433242524328840e-04 to 9.1433242524328938e-04 seconds.
Warning: Simulation tolerance relaxed to achieve convergence from 9.1433242524330022e-04 to 9.1433242524330120e-04 seconds.
Warning: Simulation tolerance relaxed to achieve convergence from 9.1433242524330716e-04 to 9.1433242524330814e-04 seconds.
Warning: Simulation tolerance relaxed to achieve convergence from 9.1433242524331692e-04 to 9.1433242524331789e-04 seconds.
Warning: Simulation tolerance relaxed to achieve convergence from 9.1433242524332082e-04 to 9.1433242524332180e-04 seconds.
Warning: Simulation tolerance relaxed to achieve convergence from 9.1433242524338772e-04 to 9.1433242524338869e-04 seconds.
Warning: Simulation tolerance relaxed to achieve convergence from 9.1433242524338869e-04 to 9.1433242524338967e-04 seconds.
Warning: Simulation tolerance relaxed to achieve convergence from 9.1433242524339162e-04 to 9.1433242524339260e-04 seconds.
Warning: Simulation tolerance relaxed to achieve convergence from 9.1433242524339856e-04 to 9.1433242524339953e-04 seconds.
Warning: Simulation tolerance relaxed to achieve convergence from 9.1433242524339953e-04 to 9.1433242524340051e-04 seconds.
Warning: Simulation tolerance relaxed to achieve convergence from 9.1433242524340246e-04 to 9.1433242524340344e-04 seconds.
Warning: Simulation tolerance relaxed to achieve convergence from 9.1433242524340929e-04 to 9.1433242524341027e-04 seconds.
Warning: Simulation tolerance relaxed to achieve convergence from 9.1433242524341027e-04 to 9.1433242524341124e-04 seconds.
Warning: Simulation tolerance relaxed to achieve convergence from 9.1433242524341721e-04 to 9.1433242524341818e-04 seconds.
Warning: Simulation tolerance relaxed to achieve convergence from 9.1433242524341916e-04 to 9.1433242524342013e-04 seconds.
Warning: Simulation tolerance relaxed to achieve convergence from 9.1433242524343412e-04 to 9.1433242524343510e-04 seconds.
Warning: Simulation tolerance relaxed to achieve convergence from 9.1433242524343510e-04 to 9.1433242524343607e-04 seconds.
Warning: Simulation tolerance relaxed to achieve convergence from 9.1433242524361909e-04 to 9.1433242524362006e-04 seconds.
Warning: Simulation tolerance relaxed to achieve convergence from 9.1433242524362006e-04 to 9.1433242524362104e-04 seconds.
Warning: Simulation tolerance relaxed to achieve convergence from 9.1433242524362201e-04 to 9.1433242524362299e-04 seconds.
Warning: Simulation tolerance relaxed to achieve convergence from 9.1433242524363698e-04 to 9.1433242524363795e-04 seconds.
Warning: Simulation tolerance relaxed to achieve convergence from 9.1433242524368273e-04 to 9.1433242524368370e-04 seconds.
Warning: Simulation tolerance relaxed to achieve convergence from 9.1433242524371764e-04 to 9.1433242524371862e-04 seconds.
Warning: Simulation tolerance relaxed to achieve convergence from 9.2433240776443467e-04 to 9.2433240776443565e-04 seconds.
Warning: Simulation tolerance relaxed to achieve convergence from 9.2433240776443662e-04 to 9.2433240776443760e-04 seconds.
Warning: Simulation tolerance relaxed to achieve convergence from 9.2433240776443955e-04 to 9.2433240776444053e-04 seconds.
Warning: Simulation tolerance relaxed to achieve convergence from 9.2433240776444053e-04 to 9.2433240776444150e-04 seconds.
Warning: Simulation tolerance relaxed to achieve convergence from 9.2433240776444150e-04 to 9.2433240776444248e-04 seconds.
Warning: Simulation tolerance relaxed to achieve convergence from 9.2433240776444248e-04 to 9.2433240776444345e-04 seconds.
Warning: Simulation tolerance relaxed to achieve convergence from 9.2433240776444345e-04 to 9.2433240776444443e-04 seconds.
Warning: Simulation tolerance relaxed to achieve convergence from 9.2433240776444443e-04 to 9.2433240776444540e-04 seconds.
Warning: Simulation tolerance relaxed to achieve convergence from 9.2433240776444540e-04 to 9.2433240776444638e-04 seconds.
Warning: Simulation tolerance relaxed to achieve convergence from 9.2433240776444638e-04 to 9.2433240776444736e-04 seconds.
Warning: Simulation tolerance relaxed to achieve convergence from 9.2433240776448324e-04 to 9.2433240776448422e-04 seconds.
Warning: Simulation tolerance relaxed to achieve convergence from 9.2433240776449918e-04 to 9.2433240776450016e-04 seconds.
Warning: Simulation tolerance relaxed to achieve convergence from 9.2433240776452976e-04 to 9.2433240776453073e-04 seconds.
Warning: Simulation tolerance relaxed to achieve convergence from 9.2433240776453073e-04 to 9.2433240776453171e-04 seconds.
Warning: Simulation tolerance relaxed to achieve convergence from 9.2433240776453171e-04 to 9.2433240776453268e-04 seconds.
Warning: Simulation tolerance relaxed to achieve convergence from 9.2433240776453561e-04 to 9.2433240776453659e-04 seconds.
Warning: Simulation tolerance relaxed to achieve convergence from 9.2433240776453854e-04 to 9.2433240776453951e-04 seconds.
Warning: Simulation tolerance relaxed to achieve convergence from 9.2433240776454439e-04 to 9.2433240776454537e-04 seconds.
Warning: Simulation tolerance relaxed to achieve convergence from 9.2433240776454732e-04 to 9.2433240776454830e-04 seconds.
Warning: Simulation tolerance relaxed to achieve convergence from 9.2433240776485025e-04 to 9.2433240776485122e-04 seconds.
Warning: Simulation tolerance relaxed to achieve convergence from 9.2433240776487507e-04 to 9.2433240776487605e-04 seconds.
Warning: Simulation tolerance relaxed to achieve convergence from 9.2433240776487800e-04 to 9.2433240776487898e-04 seconds.
Warning: Simulation tolerance relaxed to achieve convergence from 9.2433240776487898e-04 to 9.2433240776487995e-04 seconds.
Warning: Simulation tolerance relaxed to achieve convergence from 9.2433240776487995e-04 to 9.2433240776488093e-04 seconds.
Warning: Simulation tolerance relaxed to achieve convergence from 9.2433240776488093e-04 to 9.2433240776488190e-04 seconds.
Warning: Simulation tolerance relaxed to achieve convergence from 9.2433240776488190e-04 to 9.2433240776488288e-04 seconds.
Warning: Simulation tolerance relaxed to achieve convergence from 9.2433240776488776e-04 to 9.2433240776488873e-04 seconds.
Warning: Simulation tolerance relaxed to achieve convergence from 9.2433240776488873e-04 to 9.2433240776488971e-04 seconds.
Warning: Simulation tolerance relaxed to achieve convergence from 9.2433240776488971e-04 to 9.2433240776489069e-04 seconds.
Warning: Simulation tolerance relaxed to achieve convergence from 9.2433240776489264e-04 to 9.2433240776489361e-04 seconds.
Warning: Simulation tolerance relaxed to achieve convergence from 9.2433240776491454e-04 to 9.2433240776491551e-04 seconds.
Warning: Simulation tolerance relaxed to achieve convergence from 9.2433240776491551e-04 to 9.2433240776491649e-04 seconds.
Warning: Simulation tolerance relaxed to achieve convergence from 9.2433240776491649e-04 to 9.2433240776491747e-04 seconds.
Warning: Simulation tolerance relaxed to achieve convergence from 9.2433240776496539e-04 to 9.2433240776496636e-04 seconds.
Warning: Simulation tolerance relaxed to achieve convergence from 9.2433240776496636e-04 to 9.2433240776496734e-04 seconds.
Warning: Simulation tolerance relaxed to achieve convergence from 9.2433240776496929e-04 to 9.2433240776497027e-04 seconds.
Warning: Simulation tolerance relaxed to achieve convergence from 9.2433240776497222e-04 to 9.2433240776497319e-04 seconds.
Warning: Simulation tolerance relaxed to achieve convergence from 9.2433240776497417e-04 to 9.2433240776497515e-04 seconds.
Warning: Simulation tolerance relaxed to achieve convergence from 9.2433240776502502e-04 to 9.2433240776502599e-04 seconds.
Warning: Simulation tolerance relaxed to achieve convergence from 9.2433240776502599e-04 to 9.2433240776502697e-04 seconds.
Warning: Simulation tolerance relaxed to achieve convergence from 9.2433240776503586e-04 to 9.2433240776503684e-04 seconds.
Warning: Simulation tolerance relaxed to achieve convergence from 9.2433240776503684e-04 to 9.2433240776503781e-04 seconds.
Warning: Simulation tolerance relaxed to achieve convergence from 9.2433240776504367e-04 to 9.2433240776504464e-04 seconds.
Warning: Simulation tolerance relaxed to achieve convergence from 9.2433240776506156e-04 to 9.2433240776506253e-04 seconds.
Warning: Simulation tolerance relaxed to achieve convergence from 9.2433240776510135e-04 to 9.2433240776510232e-04 seconds.
Warning: Simulation tolerance relaxed to achieve convergence from 9.2433240776518277e-04 to 9.2433240776518375e-04 seconds.
Warning: Simulation tolerance relaxed to achieve convergence from 9.2433240776597391e-04 to 9.2433240776597489e-04 seconds.
Warning: Simulation tolerance relaxed to achieve convergence from 9.2433240776597684e-04 to 9.2433240776597782e-04 seconds.
Warning: Simulation tolerance relaxed to achieve convergence from 9.2433240776598269e-04 to 9.2433240776598367e-04 seconds.
Warning: Simulation tolerance relaxed to achieve convergence from 9.2433240776598465e-04 to 9.2433240776598562e-04 seconds.
Warning: Simulation tolerance relaxed to achieve convergence from 9.2433240776601544e-04 to 9.2433240776601641e-04 seconds.
Warning: Simulation tolerance relaxed to achieve convergence from 9.2433240776601641e-04 to 9.2433240776601739e-04 seconds.
Warning: Simulation tolerance relaxed to achieve convergence from 9.2433240776601739e-04 to 9.2433240776601837e-04 seconds.
Warning: Simulation tolerance relaxed to achieve convergence from 9.2433240776602422e-04 to 9.2433240776602520e-04 seconds.
Warning: Simulation tolerance relaxed to achieve convergence from 9.2433240776602520e-04 to 9.2433240776602617e-04 seconds.
Warning: Simulation tolerance relaxed to achieve convergence from 9.2433240776602617e-04 to 9.2433240776602715e-04 seconds.
Warning: Simulation tolerance relaxed to achieve convergence from 9.2433240776604406e-04 to 9.2433240776604504e-04 seconds.
Warning: Simulation tolerance relaxed to achieve convergence from 9.2433240776605393e-04 to 9.2433240776605490e-04 seconds.
Warning: Simulation tolerance relaxed to achieve convergence from 9.2433240776605490e-04 to 9.2433240776605588e-04 seconds.
Warning: Simulation tolerance relaxed to achieve convergence from 9.2433240776612462e-04 to 9.2433240776612559e-04 seconds.
Warning: Simulation tolerance relaxed to achieve convergence from 9.2433240776614348e-04 to 9.2433240776614446e-04 seconds.
Warning: Simulation tolerance relaxed to achieve convergence from 9.2433240776630080e-04 to 9.2433240776630178e-04 seconds.
Warning: Simulation tolerance relaxed to achieve convergence from 9.2433240776630275e-04 to 9.2433240776630373e-04 seconds.
Warning: Simulation tolerance relaxed to achieve convergence from 9.2433240776637474e-04 to 9.2433240776637572e-04 seconds.
Warning: Simulation tolerance relaxed to achieve convergence from 9.2433240776637572e-04 to 9.2433240776637669e-04 seconds.
Warning: Simulation tolerance relaxed to achieve convergence from 9.2433240776637865e-04 to 9.2433240776637962e-04 seconds.
Warning: Simulation tolerance relaxed to achieve convergence from 9.2433240776648230e-04 to 9.2433240776648327e-04 seconds.
Warning: Simulation tolerance relaxed to achieve convergence from 9.2433240776651330e-04 to 9.2433240776651428e-04 seconds.
Warning: Simulation tolerance relaxed to achieve convergence from 9.2433240776665111e-04 to 9.2433240776665208e-04 seconds.
Warning: Simulation tolerance relaxed to achieve convergence from 9.2433240776665208e-04 to 9.2433240776665306e-04 seconds.
Warning: Simulation tolerance relaxed to achieve convergence from 9.2433240776665902e-04 to 9.2433240776666000e-04 seconds.
Warning: Simulation tolerance relaxed to achieve convergence from 9.2433240776666596e-04 to 9.2433240776666693e-04 seconds.
Warning: Simulation tolerance relaxed to achieve convergence from 9.2433240776666693e-04 to 9.2433240776666791e-04 seconds.
Warning: Simulation tolerance relaxed to achieve convergence from 9.2433240776667387e-04 to 9.2433240776667485e-04 seconds.
Warning: Simulation tolerance relaxed to achieve convergence from 9.2433240776668981e-04 to 9.2433240776669079e-04 seconds.
Warning: Simulation tolerance relaxed to achieve convergence from 9.2433240776672071e-04 to 9.2433240776672169e-04 seconds.
Warning: Simulation tolerance relaxed to achieve convergence from 9.2433240776673155e-04 to 9.2433240776673253e-04 seconds.
Warning: Simulation tolerance relaxed to achieve convergence from 9.2433240776689223e-04 to 9.2433240776689321e-04 seconds.
Warning: Simulation tolerance relaxed to achieve convergence from 9.2433240776690101e-04 to 9.2433240776690199e-04 seconds.
Warning: Simulation tolerance relaxed to achieve convergence from 9.2433240776690199e-04 to 9.2433240776690297e-04 seconds.
Warning: Simulation tolerance relaxed to achieve convergence from 9.2433240776690297e-04 to 9.2433240776690394e-04 seconds.
Warning: Simulation tolerance relaxed to achieve convergence from 9.2433240776690394e-04 to 9.2433240776690492e-04 seconds.
Warning: Simulation tolerance relaxed to achieve convergence from 9.2433240776690492e-04 to 9.2433240776690589e-04 seconds.
Warning: Simulation tolerance relaxed to achieve convergence from 9.2433240776690784e-04 to 9.2433240776690882e-04 seconds.
Warning: Simulation tolerance relaxed to achieve convergence from 9.2433240776691077e-04 to 9.2433240776691175e-04 seconds.
Warning: Simulation tolerance relaxed to achieve convergence from 9.2433240776691467e-04 to 9.2433240776691565e-04 seconds.
Warning: Simulation tolerance relaxed to achieve convergence from 9.2433240776691565e-04 to 9.2433240776691663e-04 seconds.
Warning: Simulation tolerance relaxed to achieve convergence from 9.2433240776692053e-04 to 9.2433240776692151e-04 seconds.
Warning: Simulation tolerance relaxed to achieve convergence from 9.2433240776692248e-04 to 9.2433240776692346e-04 seconds.
Warning: Simulation tolerance relaxed to achieve convergence from 9.2433240776692346e-04 to 9.2433240776692443e-04 seconds.
Warning: Simulation tolerance relaxed to achieve convergence from 9.2433240776694829e-04 to 9.2433240776694926e-04 seconds.
Warning: Simulation tolerance relaxed to achieve convergence from 9.2433240776694926e-04 to 9.2433240776695024e-04 seconds.
Warning: Simulation tolerance relaxed to achieve convergence from 9.2433240776695121e-04 to 9.2433240776695219e-04 seconds.
Warning: Simulation tolerance relaxed to achieve convergence from 9.2433240776695219e-04 to 9.2433240776695316e-04 seconds.
Warning: Simulation tolerance relaxed to achieve convergence from 9.2433240776695512e-04 to 9.2433240776695609e-04 seconds.
Warning: Simulation tolerance relaxed to achieve convergence from 9.2433240776695609e-04 to 9.2433240776695707e-04 seconds.
Warning: Simulation tolerance relaxed to achieve convergence from 9.2433240776695804e-04 to 9.2433240776695902e-04 seconds.
Warning: Simulation tolerance relaxed to achieve convergence from 9.2433240776696487e-04 to 9.2433240776696585e-04 seconds.
Warning: Simulation tolerance relaxed to achieve convergence from 9.2433240776696585e-04 to 9.2433240776696683e-04 seconds.
Warning: Simulation tolerance relaxed to achieve convergence from 9.2433240776697572e-04 to 9.2433240776697669e-04 seconds.
Warning: Simulation tolerance relaxed to achieve convergence from 9.2433240776698059e-04 to 9.2433240776698157e-04 seconds.
Warning: Simulation tolerance relaxed to achieve convergence from 9.2433240776701561e-04 to 9.2433240776701659e-04 seconds.
Warning: Simulation tolerance relaxed to achieve convergence from 9.2433240776701659e-04 to 9.2433240776701757e-04 seconds.
Warning: Simulation tolerance relaxed to achieve convergence from 9.2433240776701854e-04 to 9.2433240776701952e-04 seconds.
Warning: Simulation tolerance relaxed to achieve convergence from 9.2433240776702049e-04 to 9.2433240776702147e-04 seconds.
Warning: Simulation tolerance relaxed to achieve convergence from 9.2433240776703741e-04 to 9.2433240776703838e-04 seconds.
Warning: Simulation tolerance relaxed to achieve convergence from 9.2433240776704435e-04 to 9.2433240776704532e-04 seconds.
Warning: Simulation tolerance relaxed to achieve convergence from 9.2433240776814340e-04 to 9.2433240776814438e-04 seconds.
Warning: Simulation tolerance relaxed to achieve convergence from 9.2433240776916927e-04 to 9.2433240776917025e-04 seconds.
Warning: Simulation tolerance relaxed to achieve convergence from 9.2433240776917220e-04 to 9.2433240776917318e-04 seconds.
Warning: Simulation tolerance relaxed to achieve convergence from 9.2433240776917914e-04 to 9.2433240776918012e-04 seconds.
Warning: Simulation tolerance relaxed to achieve convergence from 9.2433240776938709e-04 to 9.2433240776938807e-04 seconds.
Warning: Simulation tolerance relaxed to achieve convergence from 9.2433240776939793e-04 to 9.2433240776939891e-04 seconds.
Warning: Simulation tolerance relaxed to achieve convergence from 9.2433240776940585e-04 to 9.2433240776940682e-04 seconds.
Warning: Simulation tolerance relaxed to achieve convergence from 9.2433240776941376e-04 to 9.2433240776941474e-04 seconds.
Warning: Simulation tolerance relaxed to achieve convergence from 9.2433240776941474e-04 to 9.2433240776941571e-04 seconds.
Warning: Simulation tolerance relaxed to achieve convergence from 9.2433240776941571e-04 to 9.2433240776941669e-04 seconds.
Warning: Simulation tolerance relaxed to achieve convergence from 9.2433240776941766e-04 to 9.2433240776941864e-04 seconds.
Warning: Simulation tolerance relaxed to achieve convergence from 9.2433240776942059e-04 to 9.2433240776942157e-04 seconds.
Warning: Simulation tolerance relaxed to achieve convergence from 9.2433240776942254e-04 to 9.2433240776942352e-04 seconds.
Warning: Simulation tolerance relaxed to achieve convergence from 9.2433240776942352e-04 to 9.2433240776942449e-04 seconds.
Warning: Simulation tolerance relaxed to achieve convergence from 9.2433240776942547e-04 to 9.2433240776942645e-04 seconds.
Warning: Simulation tolerance relaxed to achieve convergence from 9.2433240776942742e-04 to 9.2433240776942840e-04 seconds.
Warning: Simulation tolerance relaxed to achieve convergence from 9.2433240776944434e-04 to 9.2433240776944531e-04 seconds.
Warning: Simulation tolerance relaxed to achieve convergence from 9.2433240776945225e-04 to 9.2433240776945323e-04 seconds.
Warning: Simulation tolerance relaxed to achieve convergence from 9.2433240776989905e-04 to 9.2433240776990003e-04 seconds.
Warning: Simulation tolerance relaxed to achieve convergence from 9.2433240776990794e-04 to 9.2433240776990892e-04 seconds.
Warning: Simulation tolerance relaxed to achieve convergence from 9.2433240776997874e-04 to 9.2433240776997971e-04 seconds.
Warning: Simulation tolerance relaxed to achieve convergence from 9.2433240776998568e-04 to 9.2433240776998665e-04 seconds.
Warning: Simulation tolerance relaxed to achieve convergence from 9.2433240776998860e-04 to 9.2433240776998958e-04 seconds.
Warning: Simulation tolerance relaxed to achieve convergence from 9.2433240776998958e-04 to 9.2433240776999056e-04 seconds.
Warning: Simulation tolerance relaxed to achieve convergence from 9.2433240776999153e-04 to 9.2433240776999251e-04 seconds.
Warning: Simulation tolerance relaxed to achieve convergence from 9.2433240776999251e-04 to 9.2433240776999348e-04 seconds.
Warning: Simulation tolerance relaxed to achieve convergence from 9.2433240776999544e-04 to 9.2433240776999641e-04 seconds.
Warning: Simulation tolerance relaxed to achieve convergence from 9.2433240777007502e-04 to 9.2433240777007599e-04 seconds.
Warning: Simulation tolerance relaxed to achieve convergence from 9.2933239923609801e-04 to 9.2933239923609899e-04 seconds.
Warning: Simulation tolerance relaxed to achieve convergence from 9.2933239923609899e-04 to 9.2933239923609996e-04 seconds.
Warning: Simulation tolerance relaxed to achieve convergence from 9.3933238269519798e-04 to 9.3933238269519896e-04 seconds.
Warning: Simulation tolerance relaxed to achieve convergence from 9.4933236683470150e-04 to 9.4933236683470248e-04 seconds.
Warning: Simulation tolerance relaxed to achieve convergence from 9.5433235915435774e-04 to 9.5433235915435872e-04 seconds.
Warning: Simulation tolerance relaxed to achieve convergence from 9.5433235915436067e-04 to 9.5433235915436164e-04 seconds.
Warning: Simulation tolerance relaxed to achieve convergence from 9.5433235915437856e-04 to 9.5433235915437953e-04 seconds.
Warning: Simulation tolerance relaxed to achieve convergence from 9.5933235164079084e-04 to 9.5933235164079181e-04 seconds.
Warning: Simulation tolerance relaxed to achieve convergence from 9.6433234429228667e-04 to 9.6433234429228764e-04 seconds.
Warning: Simulation tolerance relaxed to achieve convergence from 9.6433234429252562e-04 to 9.6433234429252660e-04 seconds.
Warning: Simulation tolerance relaxed to achieve convergence from 9.6433234429255034e-04 to 9.6433234429255132e-04 seconds.
Warning: Simulation tolerance relaxed to achieve convergence from 9.6433234429255132e-04 to 9.6433234429255230e-04 seconds.
Warning: Simulation tolerance relaxed to achieve convergence from 9.6933233710861288e-04 to 9.6933233710861386e-04 seconds.
Warning: Simulation tolerance relaxed to achieve convergence from 9.7433233008667182e-04 to 9.7433233008667279e-04 seconds.
Warning: Simulation tolerance relaxed to achieve convergence from 9.7933232322694355e-04 to 9.7933232322694463e-04 seconds.
Warning: Simulation tolerance relaxed to achieve convergence from 9.8433231652545914e-04 to 9.8433231652546023e-04 seconds.
Warning: Simulation tolerance relaxed to achieve convergence from 9.8433231652546218e-04 to 9.8433231652546326e-04 seconds.
Warning: Simulation tolerance relaxed to achieve convergence from 9.8933230998230165e-04 to 9.8933230998230273e-04 seconds.
Warning: Simulation tolerance relaxed to achieve convergence from 9.8933230998233287e-04 to 9.8933230998233396e-04 seconds.
Warning: Simulation tolerance relaxed to achieve convergence from 9.9433230359649658e-04 to 9.9433230359649767e-04 seconds.
Warning: Simulation tolerance relaxed to achieve convergence from 9.9433230359656077e-04 to 9.9433230359656185e-04 seconds.
Warning: Simulation tolerance relaxed to achieve convergence from 9.9433230359657768e-04 to 9.9433230359657876e-04 seconds.
Warning: Simulation tolerance relaxed to achieve convergence from 9.9933229736226818e-04 to 9.9933229736226927e-04 seconds.
Warning: Simulation tolerance relaxed to achieve convergence from 9.9933229736263464e-04 to 9.9933229736263573e-04 seconds.
Warning: Simulation tolerance relaxed to achieve convergence from 9.9933229736456279e-04 to 9.9933229736456387e-04 seconds.
Warning: Simulation tolerance relaxed to achieve convergence from 1.0043322912739426e-03 to 1.0043322912739526e-03 seconds.
Warning: Simulation tolerance relaxed to achieve convergence from 1.0043322912739725e-03 to 1.0043322912739825e-03 seconds.
Warning: Simulation tolerance relaxed to achieve convergence from 1.0043322912739825e-03 to 1.0043322912739925e-03 seconds.
Warning: Simulation tolerance relaxed to achieve convergence from 1.0043322912743121e-03 to 1.0043322912743221e-03 seconds.
Warning: Simulation tolerance relaxed to achieve convergence from 1.0043322912749420e-03 to 1.0043322912749520e-03 seconds.
Warning: Simulation tolerance relaxed to achieve convergence from 1.0043322912750919e-03 to 1.0043322912751018e-03 seconds.
Warning: Simulation tolerance relaxed to achieve convergence from 1.0043322912751118e-03 to 1.0043322912751218e-03 seconds.
Warning: Simulation tolerance relaxed to achieve convergence from 1.0043322912752515e-03 to 1.0043322912752614e-03 seconds.
Warning: Simulation tolerance relaxed to achieve convergence from 1.0043322912756006e-03 to 1.0043322912756105e-03 seconds.
Warning: Simulation tolerance relaxed to achieve convergence from 1.0043322912756205e-03 to 1.0043322912756305e-03 seconds.
Warning: Simulation tolerance relaxed to achieve convergence from 1.0043322912817699e-03 to 1.0043322912817799e-03 seconds.
Warning: Simulation tolerance relaxed to achieve convergence from 1.0043322912817898e-03 to 1.0043322912817998e-03 seconds.
Warning: Simulation tolerance relaxed to achieve convergence from 1.0043322912818397e-03 to 1.0043322912818497e-03 seconds.
Warning: Simulation tolerance relaxed to achieve convergence from 1.0043322912819494e-03 to 1.0043322912819594e-03 seconds.
Warning: Simulation tolerance relaxed to achieve convergence from 1.0043322912819594e-03 to 1.0043322912819694e-03 seconds.
Warning: Simulation tolerance relaxed to achieve convergence from 1.0043322912820292e-03 to 1.0043322912820392e-03 seconds.
Warning: Simulation tolerance relaxed to achieve convergence from 1.0093322853517526e-03 to 1.0093322853517626e-03 seconds.
Warning: Simulation tolerance relaxed to achieve convergence from 1.0093322853517925e-03 to 1.0093322853518025e-03 seconds.
Warning: Simulation tolerance relaxed to achieve convergence from 1.0093322853518723e-03 to 1.0093322853518823e-03 seconds.
Warning: Simulation tolerance relaxed to achieve convergence from 1.0143322795687117e-03 to 1.0143322795687216e-03 seconds.
Warning: Simulation tolerance relaxed to achieve convergence from 1.0143322795687915e-03 to 1.0143322795688014e-03 seconds.
Warning: Simulation tolerance relaxed to achieve convergence from 1.0143322795691013e-03 to 1.0143322795691113e-03 seconds.
Warning: Simulation tolerance relaxed to achieve convergence from 1.0143322795691313e-03 to 1.0143322795691412e-03 seconds.
Warning: Simulation tolerance relaxed to achieve convergence from 1.0143322795692310e-03 to 1.0143322795692410e-03 seconds.
Warning: Simulation tolerance relaxed to achieve convergence from 1.0143322795694407e-03 to 1.0143322795694507e-03 seconds.
Warning: Simulation tolerance relaxed to achieve convergence from 1.0143322795695105e-03 to 1.0143322795695205e-03 seconds.
Warning: Simulation tolerance relaxed to achieve convergence from 1.0143322795695205e-03 to 1.0143322795695305e-03 seconds.
Warning: Simulation tolerance relaxed to achieve convergence from 1.0143322795695305e-03 to 1.0143322795695404e-03 seconds.
Warning: Simulation tolerance relaxed to achieve convergence from 1.0143322795696003e-03 to 1.0143322795696103e-03 seconds.
Warning: Simulation tolerance relaxed to achieve convergence from 1.0143322795696302e-03 to 1.0143322795696402e-03 seconds.
Warning: Simulation tolerance relaxed to achieve convergence from 1.0143322795699398e-03 to 1.0143322795699498e-03 seconds.
Warning: Simulation tolerance relaxed to achieve convergence from 1.0143322795700396e-03 to 1.0143322795700496e-03 seconds.
Warning: Simulation tolerance relaxed to achieve convergence from 1.0143322795700496e-03 to 1.0143322795700595e-03 seconds.
Warning: Simulation tolerance relaxed to achieve convergence from 1.0143322795701194e-03 to 1.0143322795701294e-03 seconds.
Warning: Simulation tolerance relaxed to achieve convergence from 1.0143322795701593e-03 to 1.0143322795701693e-03 seconds.
Warning: Simulation tolerance relaxed to achieve convergence from 1.0143322795701693e-03 to 1.0143322795701792e-03 seconds.
Warning: Simulation tolerance relaxed to achieve convergence from 1.0143322795704689e-03 to 1.0143322795704789e-03 seconds.
Warning: Simulation tolerance relaxed to achieve convergence from 1.0143322795704889e-03 to 1.0143322795704989e-03 seconds.
Warning: Simulation tolerance relaxed to achieve convergence from 1.0143322795705188e-03 to 1.0143322795705288e-03 seconds.
Warning: Simulation tolerance relaxed to achieve convergence from 1.0143322795705487e-03 to 1.0143322795705587e-03 seconds.
Warning: Simulation tolerance relaxed to achieve convergence from 1.0143322795705587e-03 to 1.0143322795705687e-03 seconds.
Warning: Simulation tolerance relaxed to achieve convergence from 1.0143322795705986e-03 to 1.0143322795706086e-03 seconds.
Warning: Simulation tolerance relaxed to achieve convergence from 1.0143322795706285e-03 to 1.0143322795706385e-03 seconds.
Warning: Simulation tolerance relaxed to achieve convergence from 1.0143322795706385e-03 to 1.0143322795706485e-03 seconds.
Warning: Simulation tolerance relaxed to achieve convergence from 1.0143322795706684e-03 to 1.0143322795706784e-03 seconds.
Warning: Simulation tolerance relaxed to achieve convergence from 1.0143322795713779e-03 to 1.0143322795713879e-03 seconds.
Warning: Simulation tolerance relaxed to achieve convergence from 1.0143322795713879e-03 to 1.0143322795713979e-03 seconds.
Warning: Simulation tolerance relaxed to achieve convergence from 1.0143322795723375e-03 to 1.0143322795723474e-03 seconds.
Warning: Simulation tolerance relaxed to achieve convergence from 1.0143322795730472e-03 to 1.0143322795730571e-03 seconds.
Warning: Simulation tolerance relaxed to achieve convergence from 1.0143322795730871e-03 to 1.0143322795730970e-03 seconds.
Warning: Simulation tolerance relaxed to achieve convergence from 1.0143322795740266e-03 to 1.0143322795740366e-03 seconds.
Warning: Simulation tolerance relaxed to achieve convergence from 1.0143322795760558e-03 to 1.0143322795760658e-03 seconds.
Warning: Simulation tolerance relaxed to achieve convergence from 1.0143322795761855e-03 to 1.0143322795761955e-03 seconds.
Warning: Simulation tolerance relaxed to achieve convergence from 1.0193322739334102e-03 to 1.0193322739334202e-03 seconds.
Warning: Simulation tolerance relaxed to achieve convergence from 1.0193322739334202e-03 to 1.0193322739334302e-03 seconds.
Warning: Simulation tolerance relaxed to achieve convergence from 1.0193322739343496e-03 to 1.0193322739343595e-03 seconds.
Warning: Simulation tolerance relaxed to achieve convergence from 1.0193322739356892e-03 to 1.0193322739356992e-03 seconds.
Warning: Simulation tolerance relaxed to achieve convergence from 1.0193322739357391e-03 to 1.0193322739357490e-03 seconds.
Warning: Simulation tolerance relaxed to achieve convergence from 1.0193322739358989e-03 to 1.0193322739359089e-03 seconds.
Warning: Simulation tolerance relaxed to achieve convergence from 1.0193322739367584e-03 to 1.0193322739367684e-03 seconds.
Warning: Simulation tolerance relaxed to achieve convergence from 1.0193322739368283e-03 to 1.0193322739368382e-03 seconds.
Warning: Simulation tolerance relaxed to achieve convergence from 1.0193322739368382e-03 to 1.0193322739368482e-03 seconds.
Warning: Simulation tolerance relaxed to achieve convergence from 1.0193322739368781e-03 to 1.0193322739368881e-03 seconds.
Warning: Simulation tolerance relaxed to achieve convergence from 1.0193322739368881e-03 to 1.0193322739368981e-03 seconds.
Warning: Simulation tolerance relaxed to achieve convergence from 1.0193322739369480e-03 to 1.0193322739369579e-03 seconds.
Warning: Simulation tolerance relaxed to achieve convergence from 1.0193322739370178e-03 to 1.0193322739370278e-03 seconds.
Warning: Simulation tolerance relaxed to achieve convergence from 1.0193322739370377e-03 to 1.0193322739370477e-03 seconds.
Warning: Simulation tolerance relaxed to achieve convergence from 1.0193322739372175e-03 to 1.0193322739372275e-03 seconds.
Warning: Simulation tolerance relaxed to achieve convergence from 1.0193322739372275e-03 to 1.0193322739372374e-03 seconds.
Warning: Simulation tolerance relaxed to achieve convergence from 1.0193322739372374e-03 to 1.0193322739372474e-03 seconds.
Warning: Simulation tolerance relaxed to achieve convergence from 1.0193322739373671e-03 to 1.0193322739373771e-03 seconds.
Warning: Simulation tolerance relaxed to achieve convergence from 1.0193322739373970e-03 to 1.0193322739374070e-03 seconds.
Warning: Simulation tolerance relaxed to achieve convergence from 1.0193322739374768e-03 to 1.0193322739374868e-03 seconds.
Warning: Simulation tolerance relaxed to achieve convergence from 1.0193322739376865e-03 to 1.0193322739376965e-03 seconds.
Warning: Simulation tolerance relaxed to achieve convergence from 1.0193322739384663e-03 to 1.0193322739384763e-03 seconds.
Warning: Simulation tolerance relaxed to achieve convergence from 1.0193322739384763e-03 to 1.0193322739384862e-03 seconds.
Warning: Simulation tolerance relaxed to achieve convergence from 1.0193322739385860e-03 to 1.0193322739385959e-03 seconds.
Warning: Simulation tolerance relaxed to achieve convergence from 1.0193322739412156e-03 to 1.0193322739412256e-03 seconds.
Warning: Simulation tolerance relaxed to achieve convergence from 1.0293322630920408e-03 to 1.0293322630920507e-03 seconds.
Warning: Simulation tolerance relaxed to achieve convergence from 1.0293322630920607e-03 to 1.0293322630920707e-03 seconds.
Warning: Simulation tolerance relaxed to achieve convergence from 1.0293322630922903e-03 to 1.0293322630923003e-03 seconds.
Warning: Simulation tolerance relaxed to achieve convergence from 1.0293322630923203e-03 to 1.0293322630923302e-03 seconds.
Warning: Simulation tolerance relaxed to achieve convergence from 1.0293322630926700e-03 to 1.0293322630926800e-03 seconds.
Warning: Simulation tolerance relaxed to achieve convergence from 1.0293322630939997e-03 to 1.0293322630940097e-03 seconds.
Warning: Simulation tolerance relaxed to achieve convergence from 1.0293322630940296e-03 to 1.0293322630940396e-03 seconds.
Warning: Simulation tolerance relaxed to achieve convergence from 1.0293322630940595e-03 to 1.0293322630940695e-03 seconds.
Warning: Simulation tolerance relaxed to achieve convergence from 1.0293322630940695e-03 to 1.0293322630940795e-03 seconds.
Warning: Simulation tolerance relaxed to achieve convergence from 1.0293322630944692e-03 to 1.0293322630944791e-03 seconds.
Warning: Simulation tolerance relaxed to achieve convergence from 1.0293322630946190e-03 to 1.0293322630946290e-03 seconds.
Warning: Simulation tolerance relaxed to achieve convergence from 1.0293322630946389e-03 to 1.0293322630946489e-03 seconds.
Warning: Simulation tolerance relaxed to achieve convergence from 1.0293322630946988e-03 to 1.0293322630947088e-03 seconds.
Warning: Simulation tolerance relaxed to achieve convergence from 1.0293322630954983e-03 to 1.0293322630955083e-03 seconds.
Warning: Simulation tolerance relaxed to achieve convergence from 1.0293322630957279e-03 to 1.0293322630957379e-03 seconds.
Warning: Simulation tolerance relaxed to achieve convergence from 1.0293322630958077e-03 to 1.0293322630958177e-03 seconds.
Warning: Simulation tolerance relaxed to achieve convergence from 1.0293322630964068e-03 to 1.0293322630964168e-03 seconds.
Warning: Simulation tolerance relaxed to achieve convergence from 1.0293322630964368e-03 to 1.0293322630964467e-03 seconds.
Warning: Simulation tolerance relaxed to achieve convergence from 1.0343322578752836e-03 to 1.0343322578752936e-03 seconds.
Warning: Simulation tolerance relaxed to achieve convergence from 1.0343322578752936e-03 to 1.0343322578753036e-03 seconds.
Warning: Simulation tolerance relaxed to achieve convergence from 1.0343322578756334e-03 to 1.0343322578756434e-03 seconds.
Warning: Simulation tolerance relaxed to achieve convergence from 1.0343322578756633e-03 to 1.0343322578756733e-03 seconds.
Warning: Simulation tolerance relaxed to achieve convergence from 1.0343322578757032e-03 to 1.0343322578757132e-03 seconds.
Warning: Simulation tolerance relaxed to achieve convergence from 1.0343322578757132e-03 to 1.0343322578757232e-03 seconds.
Warning: Simulation tolerance relaxed to achieve convergence from 1.0343322578757431e-03 to 1.0343322578757531e-03 seconds.
Warning: Simulation tolerance relaxed to achieve convergence from 1.0343322578757730e-03 to 1.0343322578757830e-03 seconds.
Warning: Simulation tolerance relaxed to achieve convergence from 1.0343322578764723e-03 to 1.0343322578764823e-03 seconds.
Warning: Simulation tolerance relaxed to achieve convergence from 1.0343322578764923e-03 to 1.0343322578765023e-03 seconds.
Warning: Simulation tolerance relaxed to achieve convergence from 1.0343322578765023e-03 to 1.0343322578765122e-03 seconds.
[...]
Warning: Simulation tolerance relaxed to achieve convergence from 1.8593315656738681e-03 to 1.8593315656738781e-03 seconds.
Warning: Simulation tolerance relaxed to achieve convergence from 1.8593315656754877e-03 to 1.8593315656754976e-03 seconds.
Warning: Simulation tolerance relaxed to achieve convergence from 1.8643315619636233e-03 to 1.8643315619636333e-03 seconds.
Warning: Simulation tolerance relaxed to achieve convergence from 1.8643315619636333e-03 to 1.8643315619636433e-03 seconds.
Warning: Simulation tolerance relaxed to achieve convergence from 1.8643315619636433e-03 to 1.8643315619636532e-03 seconds.
Warning: Simulation tolerance relaxed to achieve convergence from 1.8643315619680226e-03 to 1.8643315619680325e-03 seconds.
Warning: Simulation tolerance relaxed to achieve convergence from 1.8643315619680325e-03 to 1.8643315619680425e-03 seconds.
Warning: Simulation tolerance relaxed to achieve convergence from 1.8643315619680425e-03 to 1.8643315619680525e-03 seconds.
Warning: Simulation tolerance relaxed to achieve convergence from 1.8643315619680525e-03 to 1.8643315619680625e-03 seconds.
Warning: Simulation tolerance relaxed to achieve convergence from 1.8693315583505630e-03 to 1.8693315583505729e-03 seconds.
Warning: Simulation tolerance relaxed to achieve convergence from 1.8693315583505729e-03 to 1.8693315583505829e-03 seconds.
Warning: Simulation tolerance relaxed to achieve convergence from 1.8693315583505829e-03 to 1.8693315583505929e-03 seconds.
Warning: Simulation tolerance relaxed to achieve convergence from 1.8693315583507527e-03 to 1.8693315583507627e-03 seconds.
Warning: Simulation tolerance relaxed to achieve convergence from 1.8693315583507627e-03 to 1.8693315583507726e-03 seconds.
Warning: Simulation tolerance relaxed to achieve convergence from 1.8693315583507726e-03 to 1.8693315583507826e-03 seconds.
Warning: Simulation tolerance relaxed to achieve convergence from 1.8693315583507826e-03 to 1.8693315583507926e-03 seconds.
Warning: Simulation tolerance relaxed to achieve convergence from 1.8693315583507926e-03 to 1.8693315583508026e-03 seconds.
Warning: Simulation tolerance relaxed to achieve convergence from 1.8693315583508026e-03 to 1.8693315583508125e-03 seconds.
Warning: Simulation tolerance relaxed to achieve convergence from 1.8693315583508125e-03 to 1.8693315583508225e-03 seconds.
Warning: Simulation tolerance relaxed to achieve convergence from 1.8693315583508225e-03 to 1.8693315583508325e-03 seconds.
Warning: Simulation tolerance relaxed to achieve convergence from 1.8693315583508325e-03 to 1.8693315583508425e-03 seconds.
Warning: Simulation tolerance relaxed to achieve convergence from 1.8693315583508425e-03 to 1.8693315583508524e-03 seconds.
Warning: Simulation tolerance relaxed to achieve convergence from 1.8693315583508524e-03 to 1.8693315583508624e-03 seconds.
Warning: Simulation tolerance relaxed to achieve convergence from 1.8693315583508624e-03 to 1.8693315583508724e-03 seconds.
Warning: Simulation tolerance relaxed to achieve convergence from 1.8693315583508724e-03 to 1.8693315583508824e-03 seconds.
Warning: Simulation tolerance relaxed to achieve convergence from 1.8693315583508824e-03 to 1.8693315583508923e-03 seconds.
Warning: Simulation tolerance relaxed to achieve convergence from 1.8693315583508923e-03 to 1.8693315583509023e-03 seconds.
Warning: Simulation tolerance relaxed to achieve convergence from 1.8693315583509023e-03 to 1.8693315583509123e-03 seconds.
Warning: Simulation tolerance relaxed to achieve convergence from 1.8693315583509123e-03 to 1.8693315583509223e-03 seconds.
Warning: Simulation tolerance relaxed to achieve convergence from 1.8693315583509223e-03 to 1.8693315583509322e-03 seconds.
Warning: Simulation tolerance relaxed to achieve convergence from 1.8693315583510021e-03 to 1.8693315583510120e-03 seconds.
Warning: Simulation tolerance relaxed to achieve convergence from 1.8693315583510120e-03 to 1.8693315583510220e-03 seconds.
Warning: Simulation tolerance relaxed to achieve convergence from 1.8693315583510220e-03 to 1.8693315583510320e-03 seconds.
Warning: Simulation tolerance relaxed to achieve convergence from 1.8693315583510320e-03 to 1.8693315583510420e-03 seconds.
Warning: Simulation tolerance relaxed to achieve convergence from 1.8693315583510420e-03 to 1.8693315583510519e-03 seconds.
Warning: Simulation tolerance relaxed to achieve convergence from 1.8693315583510519e-03 to 1.8693315583510619e-03 seconds.
Warning: Simulation tolerance relaxed to achieve convergence from 1.8693315583511118e-03 to 1.8693315583511217e-03 seconds.
Warning: Simulation tolerance relaxed to achieve convergence from 1.8693315583511217e-03 to 1.8693315583511317e-03 seconds.
Warning: Simulation tolerance relaxed to achieve convergence from 1.8693315583511317e-03 to 1.8693315583511417e-03 seconds.
Warning: Simulation tolerance relaxed to achieve convergence from 1.8693315583511816e-03 to 1.8693315583511916e-03 seconds.
Warning: Simulation tolerance relaxed to achieve convergence from 1.8693315583511916e-03 to 1.8693315583512015e-03 seconds.
Warning: Simulation tolerance relaxed to achieve convergence from 1.8693315583512015e-03 to 1.8693315583512115e-03 seconds.
Warning: Simulation tolerance relaxed to achieve convergence from 1.8693315583512115e-03 to 1.8693315583512215e-03 seconds.
Warning: Simulation tolerance relaxed to achieve convergence from 1.8693315583512215e-03 to 1.8693315583512315e-03 seconds.
Warning: Simulation tolerance relaxed to achieve convergence from 1.8693315583513113e-03 to 1.8693315583513212e-03 seconds.
Warning: Simulation tolerance relaxed to achieve convergence from 1.8693315583513212e-03 to 1.8693315583513312e-03 seconds.
Warning: Simulation tolerance relaxed to achieve convergence from 1.8693315583513312e-03 to 1.8693315583513412e-03 seconds.
Warning: Simulation tolerance relaxed to achieve convergence from 1.8693315583513412e-03 to 1.8693315583513512e-03 seconds.
Warning: Simulation tolerance relaxed to achieve convergence from 1.8693315583513512e-03 to 1.8693315583513611e-03 seconds.
Warning: Simulation tolerance relaxed to achieve convergence from 1.8693315583513611e-03 to 1.8693315583513711e-03 seconds.
Warning: Simulation tolerance relaxed to achieve convergence from 1.8693315583514110e-03 to 1.8693315583514210e-03 seconds.
Warning: Simulation tolerance relaxed to achieve convergence from 1.8693315583514210e-03 to 1.8693315583514310e-03 seconds.
Warning: Simulation tolerance relaxed to achieve convergence from 1.8693315583514310e-03 to 1.8693315583514409e-03 seconds.
Warning: Simulation tolerance relaxed to achieve convergence from 1.8693315583514409e-03 to 1.8693315583514509e-03 seconds.
Warning: Simulation tolerance relaxed to achieve convergence from 1.8693315583514509e-03 to 1.8693315583514609e-03 seconds.
Warning: Simulation tolerance relaxed to achieve convergence from 1.8693315583542004e-03 to 1.8693315583542104e-03 seconds.
Warning: Simulation tolerance relaxed to achieve convergence from 1.8693315583543900e-03 to 1.8693315583543999e-03 seconds.
Warning: Simulation tolerance relaxed to achieve convergence from 1.8693315583543999e-03 to 1.8693315583544099e-03 seconds.
Warning: Simulation tolerance relaxed to achieve convergence from 1.8693315583545795e-03 to 1.8693315583545895e-03 seconds.
Warning: Simulation tolerance relaxed to achieve convergence from 1.8693315583556589e-03 to 1.8693315583556689e-03 seconds.
Warning: Simulation tolerance relaxed to achieve convergence from 1.8693315583558684e-03 to 1.8693315583558784e-03 seconds.
Warning: Simulation tolerance relaxed to achieve convergence from 1.8693315583559083e-03 to 1.8693315583559183e-03 seconds.
Warning: Simulation tolerance relaxed to achieve convergence from 1.8693315583559382e-03 to 1.8693315583559482e-03 seconds.
Warning: Simulation tolerance relaxed to achieve convergence from 1.8693315583559482e-03 to 1.8693315583559582e-03 seconds.
Warning: Simulation tolerance relaxed to achieve convergence from 1.8693315583559881e-03 to 1.8693315583559981e-03 seconds.
Warning: Simulation tolerance relaxed to achieve convergence from 1.8693315583559981e-03 to 1.8693315583560080e-03 seconds.
Warning: Simulation tolerance relaxed to achieve convergence from 1.8693315583560280e-03 to 1.8693315583560380e-03 seconds.
Warning: Simulation tolerance relaxed to achieve convergence from 1.8693315583563777e-03 to 1.8693315583563877e-03 seconds.
Warning: Simulation tolerance relaxed to achieve convergence from 1.8693315583565174e-03 to 1.8693315583565274e-03 seconds.
Warning: Simulation tolerance relaxed to achieve convergence from 1.8693315583565274e-03 to 1.8693315583565373e-03 seconds.
Warning: Simulation tolerance relaxed to achieve convergence from 1.8693315583568268e-03 to 1.8693315583568368e-03 seconds.
Warning: Simulation tolerance relaxed to achieve convergence from 1.8743315547860562e-03 to 1.8743315547860662e-03 seconds.
Warning: Simulation tolerance relaxed to achieve convergence from 1.8743315547869262e-03 to 1.8743315547869361e-03 seconds.
Warning: Simulation tolerance relaxed to achieve convergence from 1.8743315547870259e-03 to 1.8743315547870359e-03 seconds.
Warning: Simulation tolerance relaxed to achieve convergence from 1.8743315547870858e-03 to 1.8743315547870957e-03 seconds.
Warning: Simulation tolerance relaxed to achieve convergence from 1.8743315547870957e-03 to 1.8743315547871057e-03 seconds.
Warning: Simulation tolerance relaxed to achieve convergence from 1.8743315547878755e-03 to 1.8743315547878855e-03 seconds.
Warning: Simulation tolerance relaxed to achieve convergence from 1.8743315547905350e-03 to 1.8743315547905450e-03 seconds.
Warning: Simulation tolerance relaxed to achieve convergence from 1.8743315547906348e-03 to 1.8743315547906448e-03 seconds.
Warning: Simulation tolerance relaxed to achieve convergence from 1.8743315547906448e-03 to 1.8743315547906547e-03 seconds.
Warning: Simulation tolerance relaxed to achieve convergence from 1.8743315547907345e-03 to 1.8743315547907445e-03 seconds.
Warning: Simulation tolerance relaxed to achieve convergence from 1.8743315547908044e-03 to 1.8743315547908143e-03 seconds.
Warning: Simulation tolerance relaxed to achieve convergence from 1.8743315547914926e-03 to 1.8743315547915026e-03 seconds.
Warning: Simulation tolerance relaxed to achieve convergence from 1.8743315547977519e-03 to 1.8743315547977619e-03 seconds.
Warning: Simulation tolerance relaxed to achieve convergence from 1.8743315547989612e-03 to 1.8743315547989712e-03 seconds.
Warning: Simulation tolerance relaxed to achieve convergence from 1.8743315547989912e-03 to 1.8743315547990011e-03 seconds.
Warning: Simulation tolerance relaxed to achieve convergence from 1.8743315548054302e-03 to 1.8743315548054402e-03 seconds.
Warning: Simulation tolerance relaxed to achieve convergence from 1.8793315513000487e-03 to 1.8793315513000587e-03 seconds.
Warning: Simulation tolerance relaxed to achieve convergence from 1.8793315513000587e-03 to 1.8793315513000687e-03 seconds.
Warning: Simulation tolerance relaxed to achieve convergence from 1.8793315513000687e-03 to 1.8793315513000786e-03 seconds.
Warning: Simulation tolerance relaxed to achieve convergence from 1.8793315513000786e-03 to 1.8793315513000886e-03 seconds.
Warning: Simulation tolerance relaxed to achieve convergence from 1.8793315513000886e-03 to 1.8793315513000986e-03 seconds.
Warning: Simulation tolerance relaxed to achieve convergence from 1.8793315513000986e-03 to 1.8793315513001086e-03 seconds.
Warning: Simulation tolerance relaxed to achieve convergence from 1.8793315513001086e-03 to 1.8793315513001185e-03 seconds.
Warning: Simulation tolerance relaxed to achieve convergence from 1.8793315513001185e-03 to 1.8793315513001285e-03 seconds.
Warning: Simulation tolerance relaxed to achieve convergence from 1.8793315513001285e-03 to 1.8793315513001385e-03 seconds.
Warning: Simulation tolerance relaxed to achieve convergence from 1.8793315513001385e-03 to 1.8793315513001485e-03 seconds.
Warning: Simulation tolerance relaxed to achieve convergence from 1.8793315513001485e-03 to 1.8793315513001584e-03 seconds.
Warning: Simulation tolerance relaxed to achieve convergence from 1.8793315513001584e-03 to 1.8793315513001684e-03 seconds.
Warning: Simulation tolerance relaxed to achieve convergence from 1.8793315513001684e-03 to 1.8793315513001784e-03 seconds.
Warning: Simulation tolerance relaxed to achieve convergence from 1.8793315513001784e-03 to 1.8793315513001884e-03 seconds.
Warning: Simulation tolerance relaxed to achieve convergence from 1.8793315513001884e-03 to 1.8793315513001983e-03 seconds.
Warning: Simulation tolerance relaxed to achieve convergence from 1.8793315513001983e-03 to 1.8793315513002083e-03 seconds.
Warning: Simulation tolerance relaxed to achieve convergence from 1.8793315513002083e-03 to 1.8793315513002183e-03 seconds.
Warning: Simulation tolerance relaxed to achieve convergence from 1.8793315513002183e-03 to 1.8793315513002283e-03 seconds.
Warning: Simulation tolerance relaxed to achieve convergence from 1.8793315513002283e-03 to 1.8793315513002382e-03 seconds.
Warning: Simulation tolerance relaxed to achieve convergence from 1.8793315513002382e-03 to 1.8793315513002482e-03 seconds.
Warning: Simulation tolerance relaxed to achieve convergence from 1.8793315513002482e-03 to 1.8793315513002582e-03 seconds.
Warning: Simulation tolerance relaxed to achieve convergence from 1.8793315513002582e-03 to 1.8793315513002682e-03 seconds.
Warning: Simulation tolerance relaxed to achieve convergence from 1.8793315513002682e-03 to 1.8793315513002781e-03 seconds.
Warning: Simulation tolerance relaxed to achieve convergence from 1.8793315513002781e-03 to 1.8793315513002881e-03 seconds.
Warning: Simulation tolerance relaxed to achieve convergence from 1.8793315513002881e-03 to 1.8793315513002981e-03 seconds.
Warning: Simulation tolerance relaxed to achieve convergence from 1.8793315513002981e-03 to 1.8793315513003081e-03 seconds.
Warning: Simulation tolerance relaxed to achieve convergence from 1.8793315513003081e-03 to 1.8793315513003180e-03 seconds.
Warning: Simulation tolerance relaxed to achieve convergence from 1.8793315513003180e-03 to 1.8793315513003280e-03 seconds.
Warning: Simulation tolerance relaxed to achieve convergence from 1.8793315513003280e-03 to 1.8793315513003380e-03 seconds.
Warning: Simulation tolerance relaxed to achieve convergence from 1.8793315513003380e-03 to 1.8793315513003480e-03 seconds.
Warning: Simulation tolerance relaxed to achieve convergence from 1.8793315513003480e-03 to 1.8793315513003579e-03 seconds.
Warning: Simulation tolerance relaxed to achieve convergence from 1.8793315513003579e-03 to 1.8793315513003679e-03 seconds.
Warning: Simulation tolerance relaxed to achieve convergence from 1.8793315513003679e-03 to 1.8793315513003779e-03 seconds.
Warning: Simulation tolerance relaxed to achieve convergence from 1.8793315513003779e-03 to 1.8793315513003879e-03 seconds.
Warning: Simulation tolerance relaxed to achieve convergence from 1.8793315513003879e-03 to 1.8793315513003978e-03 seconds.
Warning: Simulation tolerance relaxed to achieve convergence from 1.8793315513003978e-03 to 1.8793315513004078e-03 seconds.
Warning: Simulation tolerance relaxed to achieve convergence from 1.8793315513004078e-03 to 1.8793315513004178e-03 seconds.
Warning: Simulation tolerance relaxed to achieve convergence from 1.8793315513004178e-03 to 1.8793315513004278e-03 seconds.
Warning: Simulation tolerance relaxed to achieve convergence from 1.8793315513004278e-03 to 1.8793315513004377e-03 seconds.
Warning: Simulation tolerance relaxed to achieve convergence from 1.8793315513004377e-03 to 1.8793315513004477e-03 seconds.
Warning: Simulation tolerance relaxed to achieve convergence from 1.8793315513004477e-03 to 1.8793315513004577e-03 seconds.
Warning: Simulation tolerance relaxed to achieve convergence from 1.8793315513004577e-03 to 1.8793315513004677e-03 seconds.
Warning: Simulation tolerance relaxed to achieve convergence from 1.8793315513004677e-03 to 1.8793315513004776e-03 seconds.
Warning: Simulation tolerance relaxed to achieve convergence from 1.8793315513004776e-03 to 1.8793315513004876e-03 seconds.
Warning: Simulation tolerance relaxed to achieve convergence from 1.8793315513004876e-03 to 1.8793315513004976e-03 seconds.
Warning: Simulation tolerance relaxed to achieve convergence from 1.8793315513004976e-03 to 1.8793315513005076e-03 seconds.
Warning: Simulation tolerance relaxed to achieve convergence from 1.8793315513005076e-03 to 1.8793315513005175e-03 seconds.
Warning: Simulation tolerance relaxed to achieve convergence from 1.8793315513005175e-03 to 1.8793315513005275e-03 seconds.
Warning: Simulation tolerance relaxed to achieve convergence from 1.8793315513005275e-03 to 1.8793315513005375e-03 seconds.
Warning: Simulation tolerance relaxed to achieve convergence from 1.8793315513005375e-03 to 1.8793315513005475e-03 seconds.
Warning: Simulation tolerance relaxed to achieve convergence from 1.8793315513005475e-03 to 1.8793315513005574e-03 seconds.
Warning: Simulation tolerance relaxed to achieve convergence from 1.8793315513005574e-03 to 1.8793315513005674e-03 seconds.
Warning: Simulation tolerance relaxed to achieve convergence from 1.8793315513005674e-03 to 1.8793315513005774e-03 seconds.
Warning: Simulation tolerance relaxed to achieve convergence from 1.8793315513005774e-03 to 1.8793315513005874e-03 seconds.
Warning: Simulation tolerance relaxed to achieve convergence from 1.8793315513005874e-03 to 1.8793315513005973e-03 seconds.
Warning: Simulation tolerance relaxed to achieve convergence from 1.8793315513005973e-03 to 1.8793315513006073e-03 seconds.
Warning: Simulation tolerance relaxed to achieve convergence from 1.8793315513006073e-03 to 1.8793315513006173e-03 seconds.
Warning: Simulation tolerance relaxed to achieve convergence from 1.8793315513006173e-03 to 1.8793315513006273e-03 seconds.
Warning: Simulation tolerance relaxed to achieve convergence from 1.8793315513006273e-03 to 1.8793315513006372e-03 seconds.
Warning: Simulation tolerance relaxed to achieve convergence from 1.8793315513006372e-03 to 1.8793315513006472e-03 seconds.
Warning: Simulation tolerance relaxed to achieve convergence from 1.8793315513006472e-03 to 1.8793315513006572e-03 seconds.
Warning: Simulation tolerance relaxed to achieve convergence from 1.8793315513006572e-03 to 1.8793315513006672e-03 seconds.
Warning: Simulation tolerance relaxed to achieve convergence from 1.8793315513006672e-03 to 1.8793315513006771e-03 seconds.
Warning: Simulation tolerance relaxed to achieve convergence from 1.8793315513006771e-03 to 1.8793315513006871e-03 seconds.
Warning: Simulation tolerance relaxed to achieve convergence from 1.8793315513006871e-03 to 1.8793315513006971e-03 seconds.
Warning: Simulation tolerance relaxed to achieve convergence from 1.8793315513006971e-03 to 1.8793315513007071e-03 seconds.
Warning: Simulation tolerance relaxed to achieve convergence from 1.8793315513007071e-03 to 1.8793315513007170e-03 seconds.
Warning: Simulation tolerance relaxed to achieve convergence from 1.8793315513007170e-03 to 1.8793315513007270e-03 seconds.
Warning: Simulation tolerance relaxed to achieve convergence from 1.8793315513007270e-03 to 1.8793315513007370e-03 seconds.
Warning: Simulation tolerance relaxed to achieve convergence from 1.8793315513007370e-03 to 1.8793315513007470e-03 seconds.
Warning: Simulation tolerance relaxed to achieve convergence from 1.8793315513007470e-03 to 1.8793315513007569e-03 seconds.

Simulation stopped by user.
Total elapsed time: 144.290 seconds.

Files loaded:
C:\Users\Alvaro PC\Documents\GitHub\Elec-Pot\Module 4\Simulation\Simulation.net
C:\Users\Alvaro PC\AppData\Local\LTspice\lib\cmp\standard.dio
C:\Users\Alvaro PC\AppData\Local\LTspice\lib\cmp\standard.mos
C:\Users\Alvaro PC\Desktop\TL431\TL431.mod

