LTspice 24.1.9 for Windows
Circuit: C:\Users\Alvaro PC\Documents\GitHub\Elec-Pot\Module 4\Simulation\Simulation.net
Start Time: Thu Sep 25 15:56:24 2025
solver = Normal
Maximum thread count: 2
tnom = 27
temp = 27
method = trap
Direct Newton iteration for .op point succeeded.
Warning: Simulation tolerance relaxed to achieve convergence from 6.7433260932159408e-04 to 6.7433260932159506e-04 seconds.
Warning: Simulation tolerance relaxed to achieve convergence from 6.7933258768653848e-04 to 6.7933258768653945e-04 seconds.
Warning: Simulation tolerance relaxed to achieve convergence from 7.1933242004825143e-04 to 7.1933242004825241e-04 seconds.
Warning: Simulation tolerance relaxed to achieve convergence from 7.3933234079360947e-04 to 7.3933234079361044e-04 seconds.
Warning: Simulation tolerance relaxed to achieve convergence from 7.4433232149720180e-04 to 7.4433232149720278e-04 seconds.
Warning: Simulation tolerance relaxed to achieve convergence from 7.6433224653249966e-04 to 7.6433224653250063e-04 seconds.
Warning: Simulation tolerance relaxed to achieve convergence from 7.6433224653250161e-04 to 7.6433224653250258e-04 seconds.
Warning: Simulation tolerance relaxed to achieve convergence from 7.6433224653250855e-04 to 7.6433224653250952e-04 seconds.
Warning: Simulation tolerance relaxed to achieve convergence from 7.6933222836655360e-04 to 7.6933222836655457e-04 seconds.
Warning: Simulation tolerance relaxed to achieve convergence from 7.7933219275665275e-04 to 7.7933219275665372e-04 seconds.
Warning: Simulation tolerance relaxed to achieve convergence from 7.8933215812730759e-04 to 7.8933215812730857e-04 seconds.
Warning: Simulation tolerance relaxed to achieve convergence from 7.8933215812730857e-04 to 7.8933215812730954e-04 seconds.
Warning: Simulation tolerance relaxed to achieve convergence from 7.9433214119184014e-04 to 7.9433214119184112e-04 seconds.
Warning: Simulation tolerance relaxed to achieve convergence from 8.0933209192998311e-04 to 8.0933209192998409e-04 seconds.
Warning: Simulation tolerance relaxed to achieve convergence from 8.1933206042480468e-04 to 8.1933206042480566e-04 seconds.
Warning: Simulation tolerance relaxed to achieve convergence from 8.1933206042480566e-04 to 8.1933206042480663e-04 seconds.
Warning: Simulation tolerance relaxed to achieve convergence from 8.4433198637008644e-04 to 8.4433198637008742e-04 seconds.
Warning: Simulation tolerance relaxed to achieve convergence from 8.4933197238592801e-04 to 8.4933197238592898e-04 seconds.
Warning: Simulation tolerance relaxed to achieve convergence from 8.5433195868682855e-04 to 8.5433195868682952e-04 seconds.
Warning: Simulation tolerance relaxed to achieve convergence from 8.5933194526016709e-04 to 8.5933194526016806e-04 seconds.
Warning: Simulation tolerance relaxed to achieve convergence from 8.5933194526016806e-04 to 8.5933194526016904e-04 seconds.
Warning: Simulation tolerance relaxed to achieve convergence from 8.6433193211984613e-04 to 8.6433193211984710e-04 seconds.
Warning: Simulation tolerance relaxed to achieve convergence from 8.6433193211984710e-04 to 8.6433193211984808e-04 seconds.
Warning: Simulation tolerance relaxed to achieve convergence from 8.6933191926240902e-04 to 8.6933191926241000e-04 seconds.
Warning: Simulation tolerance relaxed to achieve convergence from 8.6933191926241000e-04 to 8.6933191926241097e-04 seconds.
Warning: Simulation tolerance relaxed to achieve convergence from 8.7433190668869006e-04 to 8.7433190668869103e-04 seconds.
Warning: Simulation tolerance relaxed to achieve convergence from 8.7433190668869103e-04 to 8.7433190668869201e-04 seconds.
Warning: Simulation tolerance relaxed to achieve convergence from 8.7933189439868924e-04 to 8.7933189439869022e-04 seconds.
Warning: Simulation tolerance relaxed to achieve convergence from 8.7933189439869022e-04 to 8.7933189439869119e-04 seconds.
Warning: Simulation tolerance relaxed to achieve convergence from 8.8933187067413342e-04 to 8.8933187067413439e-04 seconds.
Warning: Simulation tolerance relaxed to achieve convergence from 8.8933187067413439e-04 to 8.8933187067413537e-04 seconds.
Warning: Simulation tolerance relaxed to achieve convergence from 8.9433185923767087e-04 to 8.9433185923767184e-04 seconds.
Warning: Simulation tolerance relaxed to achieve convergence from 8.9433185923767184e-04 to 8.9433185923767282e-04 seconds.
Warning: Simulation tolerance relaxed to achieve convergence from 8.9933184808540340e-04 to 8.9933184808540438e-04 seconds.
Warning: Simulation tolerance relaxed to achieve convergence from 8.9933184808540438e-04 to 8.9933184808540536e-04 seconds.
Warning: Simulation tolerance relaxed to achieve convergence from 8.9933184808540536e-04 to 8.9933184808540633e-04 seconds.
Warning: Simulation tolerance relaxed to achieve convergence from 8.9933184808540633e-04 to 8.9933184808540731e-04 seconds.
Warning: Simulation tolerance relaxed to achieve convergence from 8.9933184808540731e-04 to 8.9933184808540828e-04 seconds.
Warning: Simulation tolerance relaxed to achieve convergence from 8.9933184808540828e-04 to 8.9933184808540926e-04 seconds.
Warning: Simulation tolerance relaxed to achieve convergence from 8.9933184808540926e-04 to 8.9933184808541023e-04 seconds.
Warning: Simulation tolerance relaxed to achieve convergence from 8.9933184808541023e-04 to 8.9933184808541121e-04 seconds.
Warning: Simulation tolerance relaxed to achieve convergence from 8.9933184808541121e-04 to 8.9933184808541219e-04 seconds.
Warning: Simulation tolerance relaxed to achieve convergence from 8.9933184808541219e-04 to 8.9933184808541316e-04 seconds.
Warning: Simulation tolerance relaxed to achieve convergence from 8.9933184808541316e-04 to 8.9933184808541414e-04 seconds.
Warning: Simulation tolerance relaxed to achieve convergence from 8.9933184808541414e-04 to 8.9933184808541511e-04 seconds.
Warning: Simulation tolerance relaxed to achieve convergence from 8.9933184808542910e-04 to 8.9933184808543008e-04 seconds.
Warning: Simulation tolerance relaxed to achieve convergence from 8.9933184808543008e-04 to 8.9933184808543105e-04 seconds.
Warning: Simulation tolerance relaxed to achieve convergence from 8.9933184808543105e-04 to 8.9933184808543203e-04 seconds.
Warning: Simulation tolerance relaxed to achieve convergence from 8.9933184808543203e-04 to 8.9933184808543300e-04 seconds.
Warning: Simulation tolerance relaxed to achieve convergence from 8.9933184808543300e-04 to 8.9933184808543398e-04 seconds.
Warning: Simulation tolerance relaxed to achieve convergence from 8.9933184808543398e-04 to 8.9933184808543495e-04 seconds.
Warning: Simulation tolerance relaxed to achieve convergence from 8.9933184808543495e-04 to 8.9933184808543593e-04 seconds.
Warning: Simulation tolerance relaxed to achieve convergence from 8.9933184808543593e-04 to 8.9933184808543691e-04 seconds.
Warning: Simulation tolerance relaxed to achieve convergence from 8.9933184808543691e-04 to 8.9933184808543788e-04 seconds.
Warning: Simulation tolerance relaxed to achieve convergence from 8.9933184808543788e-04 to 8.9933184808543886e-04 seconds.
Warning: Simulation tolerance relaxed to achieve convergence from 8.9933184808543886e-04 to 8.9933184808543983e-04 seconds.
Warning: Simulation tolerance relaxed to achieve convergence from 8.9933184808543983e-04 to 8.9933184808544081e-04 seconds.
Warning: Simulation tolerance relaxed to achieve convergence from 8.9933184808544081e-04 to 8.9933184808544178e-04 seconds.
Warning: Simulation tolerance relaxed to achieve convergence from 8.9933184808544178e-04 to 8.9933184808544276e-04 seconds.
Warning: Simulation tolerance relaxed to achieve convergence from 8.9933184808544374e-04 to 8.9933184808544471e-04 seconds.
Warning: Simulation tolerance relaxed to achieve convergence from 9.0933182663345319e-04 to 9.0933182663345416e-04 seconds.
Warning: Simulation tolerance relaxed to achieve convergence from 9.0933182663345416e-04 to 9.0933182663345514e-04 seconds.
Warning: Simulation tolerance relaxed to achieve convergence from 9.0933182663345514e-04 to 9.0933182663345612e-04 seconds.
Warning: Simulation tolerance relaxed to achieve convergence from 9.0933182663345612e-04 to 9.0933182663345709e-04 seconds.
Warning: Simulation tolerance relaxed to achieve convergence from 9.0933182663345709e-04 to 9.0933182663345807e-04 seconds.
Warning: Simulation tolerance relaxed to achieve convergence from 9.0933182663345807e-04 to 9.0933182663345904e-04 seconds.
Warning: Simulation tolerance relaxed to achieve convergence from 9.0933182663347400e-04 to 9.0933182663347498e-04 seconds.
Warning: Simulation tolerance relaxed to achieve convergence from 9.0933182663347498e-04 to 9.0933182663347596e-04 seconds.
Warning: Simulation tolerance relaxed to achieve convergence from 9.0933182663349092e-04 to 9.0933182663349189e-04 seconds.
Warning: Simulation tolerance relaxed to achieve convergence from 9.0933182663349189e-04 to 9.0933182663349287e-04 seconds.
Warning: Simulation tolerance relaxed to achieve convergence from 9.0933182663349287e-04 to 9.0933182663349385e-04 seconds.
Warning: Simulation tolerance relaxed to achieve convergence from 9.0933182663349385e-04 to 9.0933182663349482e-04 seconds.
Warning: Simulation tolerance relaxed to achieve convergence from 9.0933182663349482e-04 to 9.0933182663349580e-04 seconds.
Warning: Simulation tolerance relaxed to achieve convergence from 9.0933182663351076e-04 to 9.0933182663351173e-04 seconds.
Warning: Simulation tolerance relaxed to achieve convergence from 9.0933182663351173e-04 to 9.0933182663351271e-04 seconds.
Warning: Simulation tolerance relaxed to achieve convergence from 9.0933182663351271e-04 to 9.0933182663351369e-04 seconds.
Warning: Simulation tolerance relaxed to achieve convergence from 9.0933182663351369e-04 to 9.0933182663351466e-04 seconds.
Warning: Simulation tolerance relaxed to achieve convergence from 9.0933182663352962e-04 to 9.0933182663353060e-04 seconds.
Warning: Simulation tolerance relaxed to achieve convergence from 9.0933182663353060e-04 to 9.0933182663353158e-04 seconds.
Warning: Simulation tolerance relaxed to achieve convergence from 9.0933182663353158e-04 to 9.0933182663353255e-04 seconds.
Warning: Simulation tolerance relaxed to achieve convergence from 9.0933182663354654e-04 to 9.0933182663354751e-04 seconds.
Warning: Simulation tolerance relaxed to achieve convergence from 9.0933182663354751e-04 to 9.0933182663354849e-04 seconds.
Warning: Simulation tolerance relaxed to achieve convergence from 9.0933182663354849e-04 to 9.0933182663354946e-04 seconds.
Warning: Simulation tolerance relaxed to achieve convergence from 9.0933182663356443e-04 to 9.0933182663356540e-04 seconds.
Warning: Simulation tolerance relaxed to achieve convergence from 9.0933182663356540e-04 to 9.0933182663356638e-04 seconds.
Warning: Simulation tolerance relaxed to achieve convergence from 9.0933182663356638e-04 to 9.0933182663356735e-04 seconds.
Warning: Simulation tolerance relaxed to achieve convergence from 9.0933182663356735e-04 to 9.0933182663356833e-04 seconds.
Warning: Simulation tolerance relaxed to achieve convergence from 9.0933182663356833e-04 to 9.0933182663356931e-04 seconds.
Warning: Simulation tolerance relaxed to achieve convergence from 9.0933182663356931e-04 to 9.0933182663357028e-04 seconds.
Warning: Simulation tolerance relaxed to achieve convergence from 9.0933182663357028e-04 to 9.0933182663357126e-04 seconds.
Warning: Simulation tolerance relaxed to achieve convergence from 9.0933182663357126e-04 to 9.0933182663357223e-04 seconds.
Warning: Simulation tolerance relaxed to achieve convergence from 9.0933182663357809e-04 to 9.0933182663357906e-04 seconds.
Warning: Simulation tolerance relaxed to achieve convergence from 9.0933182663357906e-04 to 9.0933182663358004e-04 seconds.
Warning: Simulation tolerance relaxed to achieve convergence from 9.0933182663358004e-04 to 9.0933182663358102e-04 seconds.
Warning: Simulation tolerance relaxed to achieve convergence from 9.0933182663358102e-04 to 9.0933182663358199e-04 seconds.
Warning: Simulation tolerance relaxed to achieve convergence from 9.0933182663358199e-04 to 9.0933182663358297e-04 seconds.
Warning: Simulation tolerance relaxed to achieve convergence from 9.0933182663358297e-04 to 9.0933182663358394e-04 seconds.
Warning: Simulation tolerance relaxed to achieve convergence from 9.0933182663358394e-04 to 9.0933182663358492e-04 seconds.
Warning: Simulation tolerance relaxed to achieve convergence from 9.0933182663358492e-04 to 9.0933182663358589e-04 seconds.
Warning: Simulation tolerance relaxed to achieve convergence from 9.0933182663358589e-04 to 9.0933182663358687e-04 seconds.
Warning: Simulation tolerance relaxed to achieve convergence from 9.0933182663358687e-04 to 9.0933182663358785e-04 seconds.
Warning: Simulation tolerance relaxed to achieve convergence from 9.0933182663358785e-04 to 9.0933182663358882e-04 seconds.
Warning: Simulation tolerance relaxed to achieve convergence from 9.0933182663358882e-04 to 9.0933182663358980e-04 seconds.
Warning: Simulation tolerance relaxed to achieve convergence from 9.0933182663358980e-04 to 9.0933182663359077e-04 seconds.
Warning: Simulation tolerance relaxed to achieve convergence from 9.0933182663359077e-04 to 9.0933182663359175e-04 seconds.
Warning: Simulation tolerance relaxed to achieve convergence from 9.0933182663359175e-04 to 9.0933182663359272e-04 seconds.
Warning: Simulation tolerance relaxed to achieve convergence from 9.0933182663359272e-04 to 9.0933182663359370e-04 seconds.
Warning: Simulation tolerance relaxed to achieve convergence from 9.0933182663359370e-04 to 9.0933182663359468e-04 seconds.
Warning: Simulation tolerance relaxed to achieve convergence from 9.0933182663359468e-04 to 9.0933182663359565e-04 seconds.
Warning: Simulation tolerance relaxed to achieve convergence from 9.0933182663359565e-04 to 9.0933182663359663e-04 seconds.
Warning: Simulation tolerance relaxed to achieve convergence from 9.0933182663359663e-04 to 9.0933182663359760e-04 seconds.
Warning: Simulation tolerance relaxed to achieve convergence from 9.0933182663359760e-04 to 9.0933182663359858e-04 seconds.
Warning: Simulation tolerance relaxed to achieve convergence from 9.0933182663359858e-04 to 9.0933182663359955e-04 seconds.
Warning: Simulation tolerance relaxed to achieve convergence from 9.1433181633057703e-04 to 9.1433181633057800e-04 seconds.
Warning: Simulation tolerance relaxed to achieve convergence from 9.1933180631268015e-04 to 9.1933180631268113e-04 seconds.
Warning: Simulation tolerance relaxed to achieve convergence from 9.1933180631268113e-04 to 9.1933180631268211e-04 seconds.
Warning: Simulation tolerance relaxed to achieve convergence from 9.2433179657388468e-04 to 9.2433179657388565e-04 seconds.
Warning: Simulation tolerance relaxed to achieve convergence from 9.2933178711611017e-04 to 9.2933178711611115e-04 seconds.
Warning: Simulation tolerance relaxed to achieve convergence from 9.3933176904296869e-04 to 9.3933176904296967e-04 seconds.
Warning: Simulation tolerance relaxed to achieve convergence from 9.3933176904296967e-04 to 9.3933176904297064e-04 seconds.
Warning: Simulation tolerance relaxed to achieve convergence from 9.3933176904297064e-04 to 9.3933176904297162e-04 seconds.
Warning: Simulation tolerance relaxed to achieve convergence from 9.3933176904297162e-04 to 9.3933176904297260e-04 seconds.
Warning: Simulation tolerance relaxed to achieve convergence from 9.3933176904297260e-04 to 9.3933176904297357e-04 seconds.
Warning: Simulation tolerance relaxed to achieve convergence from 9.3933176904297357e-04 to 9.3933176904297455e-04 seconds.
Warning: Simulation tolerance relaxed to achieve convergence from 9.3933176904297455e-04 to 9.3933176904297552e-04 seconds.
Warning: Simulation tolerance relaxed to achieve convergence from 9.3933176904297552e-04 to 9.3933176904297650e-04 seconds.
Warning: Simulation tolerance relaxed to achieve convergence from 9.3933176904297650e-04 to 9.3933176904297748e-04 seconds.
Warning: Simulation tolerance relaxed to achieve convergence from 9.3933176904298344e-04 to 9.3933176904298441e-04 seconds.
Warning: Simulation tolerance relaxed to achieve convergence from 9.3933176904298441e-04 to 9.3933176904298539e-04 seconds.
Warning: Simulation tolerance relaxed to achieve convergence from 9.4433176041042795e-04 to 9.4433176041042893e-04 seconds.
Warning: Simulation tolerance relaxed to achieve convergence from 9.4433176041042893e-04 to 9.4433176041042990e-04 seconds.
Warning: Simulation tolerance relaxed to achieve convergence from 9.4933175206017475e-04 to 9.4933175206017573e-04 seconds.
Warning: Simulation tolerance relaxed to achieve convergence from 9.4933175206017573e-04 to 9.4933175206017670e-04 seconds.
Warning: Simulation tolerance relaxed to achieve convergence from 9.6933172134518620e-04 to 9.6933172134518718e-04 seconds.
Warning: Simulation tolerance relaxed to achieve convergence from 9.6933172134518718e-04 to 9.6933172134518815e-04 seconds.
Warning: Simulation tolerance relaxed to achieve convergence from 9.6933172134518815e-04 to 9.6933172134518913e-04 seconds.
Warning: Simulation tolerance relaxed to achieve convergence from 9.6933172134518913e-04 to 9.6933172134519010e-04 seconds.
Warning: Simulation tolerance relaxed to achieve convergence from 9.6933172134519010e-04 to 9.6933172134519108e-04 seconds.
Warning: Simulation tolerance relaxed to achieve convergence from 9.6933172134519108e-04 to 9.6933172134519205e-04 seconds.
Warning: Simulation tolerance relaxed to achieve convergence from 9.6933172134519205e-04 to 9.6933172134519303e-04 seconds.
Warning: Simulation tolerance relaxed to achieve convergence from 9.6933172134519303e-04 to 9.6933172134519401e-04 seconds.
Warning: Simulation tolerance relaxed to achieve convergence from 9.6933172134519401e-04 to 9.6933172134519498e-04 seconds.
Warning: Simulation tolerance relaxed to achieve convergence from 9.7433171432942151e-04 to 9.7433171432942248e-04 seconds.
Warning: Simulation tolerance relaxed to achieve convergence from 9.7433171447114809e-04 to 9.7433171447114907e-04 seconds.
Warning: Simulation tolerance relaxed to achieve convergence from 9.9433168884277361e-04 to 9.9433168884277470e-04 seconds.
Warning: Simulation tolerance relaxed to achieve convergence from 9.9433168884277470e-04 to 9.9433168884277578e-04 seconds.
Warning: Simulation tolerance relaxed to achieve convergence from 9.9433168884277578e-04 to 9.9433168884277686e-04 seconds.
Warning: Simulation tolerance relaxed to achieve convergence from 9.9433168884277686e-04 to 9.9433168884277795e-04 seconds.
Warning: Simulation tolerance relaxed to achieve convergence from 9.9433168884277795e-04 to 9.9433168884277903e-04 seconds.
Warning: Simulation tolerance relaxed to achieve convergence from 9.9433168884277903e-04 to 9.9433168884278012e-04 seconds.
Warning: Simulation tolerance relaxed to achieve convergence from 9.9433168884278012e-04 to 9.9433168884278120e-04 seconds.
Warning: Simulation tolerance relaxed to achieve convergence from 9.9433168884278120e-04 to 9.9433168884278228e-04 seconds.
Warning: Simulation tolerance relaxed to achieve convergence from 9.9433168884278228e-04 to 9.9433168884278337e-04 seconds.
Warning: Simulation tolerance relaxed to achieve convergence from 9.9433168884278337e-04 to 9.9433168884278445e-04 seconds.
Warning: Simulation tolerance relaxed to achieve convergence from 9.9433168884278445e-04 to 9.9433168884278554e-04 seconds.
Warning: Simulation tolerance relaxed to achieve convergence from 9.9433168884278554e-04 to 9.9433168884278662e-04 seconds.
Warning: Simulation tolerance relaxed to achieve convergence from 9.9433168884278662e-04 to 9.9433168884278771e-04 seconds.
Warning: Simulation tolerance relaxed to achieve convergence from 9.9433168884278771e-04 to 9.9433168884278879e-04 seconds.
Warning: Simulation tolerance relaxed to achieve convergence from 9.9433168884278879e-04 to 9.9433168884278987e-04 seconds.
Warning: Simulation tolerance relaxed to achieve convergence from 9.9433168884278987e-04 to 9.9433168884279096e-04 seconds.
Warning: Simulation tolerance relaxed to achieve convergence from 1.0043316775841713e-03 to 1.0043316775841813e-03 seconds.
Warning: Simulation tolerance relaxed to achieve convergence from 1.0043316775841813e-03 to 1.0043316775841912e-03 seconds.
Warning: Simulation tolerance relaxed to achieve convergence from 1.0043316775841912e-03 to 1.0043316775842012e-03 seconds.
Warning: Simulation tolerance relaxed to achieve convergence from 1.0043316775842012e-03 to 1.0043316775842112e-03 seconds.
Warning: Simulation tolerance relaxed to achieve convergence from 1.0043316775842112e-03 to 1.0043316775842212e-03 seconds.
Warning: Simulation tolerance relaxed to achieve convergence from 1.0043316775842212e-03 to 1.0043316775842311e-03 seconds.
Warning: Simulation tolerance relaxed to achieve convergence from 1.0043316775842311e-03 to 1.0043316775842411e-03 seconds.
Warning: Simulation tolerance relaxed to achieve convergence from 1.0043316775842411e-03 to 1.0043316775842511e-03 seconds.
Warning: Simulation tolerance relaxed to achieve convergence from 1.0043316775842511e-03 to 1.0043316775842611e-03 seconds.
Warning: Simulation tolerance relaxed to achieve convergence from 1.0043316775842611e-03 to 1.0043316775842710e-03 seconds.
Warning: Simulation tolerance relaxed to achieve convergence from 1.0043316775842710e-03 to 1.0043316775842810e-03 seconds.
Warning: Simulation tolerance relaxed to achieve convergence from 1.0043316775842810e-03 to 1.0043316775842910e-03 seconds.
Warning: Simulation tolerance relaxed to achieve convergence from 1.0093316723204253e-03 to 1.0093316723204352e-03 seconds.
Warning: Simulation tolerance relaxed to achieve convergence from 1.0093316723204352e-03 to 1.0093316723204452e-03 seconds.
Warning: Simulation tolerance relaxed to achieve convergence from 1.0143316672983167e-03 to 1.0143316672983267e-03 seconds.
Warning: Simulation tolerance relaxed to achieve convergence from 1.0143316672983267e-03 to 1.0143316672983366e-03 seconds.
Warning: Simulation tolerance relaxed to achieve convergence from 1.0143316672983366e-03 to 1.0143316672983466e-03 seconds.
Warning: Simulation tolerance relaxed to achieve convergence from 1.0143316672983466e-03 to 1.0143316672983566e-03 seconds.
Warning: Simulation tolerance relaxed to achieve convergence from 1.0143316672983566e-03 to 1.0143316672983666e-03 seconds.
Warning: Simulation tolerance relaxed to achieve convergence from 1.0143316672983666e-03 to 1.0143316672983765e-03 seconds.
Warning: Simulation tolerance relaxed to achieve convergence from 1.0143316672983765e-03 to 1.0143316672983865e-03 seconds.
Warning: Simulation tolerance relaxed to achieve convergence from 1.0143316672983865e-03 to 1.0143316672983965e-03 seconds.
Warning: Simulation tolerance relaxed to achieve convergence from 1.0143316672985563e-03 to 1.0143316672985663e-03 seconds.
Warning: Simulation tolerance relaxed to achieve convergence from 1.0193316624987124e-03 to 1.0193316624987224e-03 seconds.
Warning: Simulation tolerance relaxed to achieve convergence from 1.0193316624987224e-03 to 1.0193316624987324e-03 seconds.
Warning: Simulation tolerance relaxed to achieve convergence from 1.0193316624987324e-03 to 1.0193316624987423e-03 seconds.
Warning: Simulation tolerance relaxed to achieve convergence from 1.0193316624987423e-03 to 1.0193316624987523e-03 seconds.
Warning: Simulation tolerance relaxed to achieve convergence from 1.0193316624987523e-03 to 1.0193316624987623e-03 seconds.
Warning: Simulation tolerance relaxed to achieve convergence from 1.0193316624987623e-03 to 1.0193316624987723e-03 seconds.
Warning: Simulation tolerance relaxed to achieve convergence from 1.0193316624987723e-03 to 1.0193316624987822e-03 seconds.
Warning: Simulation tolerance relaxed to achieve convergence from 1.0193316624987822e-03 to 1.0193316624987922e-03 seconds.
Warning: Simulation tolerance relaxed to achieve convergence from 1.0193316624987922e-03 to 1.0193316624988022e-03 seconds.
Warning: Simulation tolerance relaxed to achieve convergence from 1.0193316624988022e-03 to 1.0193316624988122e-03 seconds.
Warning: Simulation tolerance relaxed to achieve convergence from 1.0193316624988122e-03 to 1.0193316624988221e-03 seconds.
Warning: Simulation tolerance relaxed to achieve convergence from 1.0193316624988221e-03 to 1.0193316624988321e-03 seconds.
Warning: Simulation tolerance relaxed to achieve convergence from 1.0193316624988321e-03 to 1.0193316624988421e-03 seconds.
Warning: Simulation tolerance relaxed to achieve convergence from 1.0193316624988421e-03 to 1.0193316624988521e-03 seconds.
Warning: Simulation tolerance relaxed to achieve convergence from 1.0193316624988521e-03 to 1.0193316624988620e-03 seconds.
Warning: Simulation tolerance relaxed to achieve convergence from 1.0193316624988620e-03 to 1.0193316624988720e-03 seconds.
Warning: Simulation tolerance relaxed to achieve convergence from 1.0193316624988720e-03 to 1.0193316624988820e-03 seconds.
Warning: Simulation tolerance relaxed to achieve convergence from 1.0193316624988820e-03 to 1.0193316624988920e-03 seconds.
Warning: Simulation tolerance relaxed to achieve convergence from 1.0193316624988920e-03 to 1.0193316624989019e-03 seconds.
Warning: Simulation tolerance relaxed to achieve convergence from 1.0193316624989019e-03 to 1.0193316624989119e-03 seconds.
Warning: Simulation tolerance relaxed to achieve convergence from 1.0193316624989119e-03 to 1.0193316624989219e-03 seconds.
Warning: Simulation tolerance relaxed to achieve convergence from 1.0243316579322812e-03 to 1.0243316579322912e-03 seconds.
Warning: Simulation tolerance relaxed to achieve convergence from 1.0243316579322912e-03 to 1.0243316579323012e-03 seconds.
Warning: Simulation tolerance relaxed to achieve convergence from 1.0293316535949705e-03 to 1.0293316535949805e-03 seconds.
Warning: Simulation tolerance relaxed to achieve convergence from 1.0293316535949805e-03 to 1.0293316535949905e-03 seconds.
Warning: Simulation tolerance relaxed to achieve convergence from 1.0293316535949905e-03 to 1.0293316535950005e-03 seconds.
Warning: Simulation tolerance relaxed to achieve convergence from 1.0293316535950005e-03 to 1.0293316535950104e-03 seconds.
Warning: Simulation tolerance relaxed to achieve convergence from 1.0293316535950104e-03 to 1.0293316535950204e-03 seconds.
Warning: Simulation tolerance relaxed to achieve convergence from 1.0293316535950204e-03 to 1.0293316535950304e-03 seconds.
Warning: Simulation tolerance relaxed to achieve convergence from 1.0293316535950304e-03 to 1.0293316535950404e-03 seconds.
Warning: Simulation tolerance relaxed to achieve convergence from 1.0293316535950404e-03 to 1.0293316535950503e-03 seconds.
Warning: Simulation tolerance relaxed to achieve convergence from 1.0293316535950503e-03 to 1.0293316535950603e-03 seconds.
Warning: Simulation tolerance relaxed to achieve convergence from 1.0293316535952201e-03 to 1.0293316535952301e-03 seconds.
Warning: Simulation tolerance relaxed to achieve convergence from 1.0293316535952301e-03 to 1.0293316535952401e-03 seconds.
Warning: Simulation tolerance relaxed to achieve convergence from 1.0343316494665145e-03 to 1.0343316494665245e-03 seconds.
Warning: Simulation tolerance relaxed to achieve convergence from 1.0343316494665245e-03 to 1.0343316494665345e-03 seconds.
Warning: Simulation tolerance relaxed to achieve convergence from 1.0343316494665345e-03 to 1.0343316494665444e-03 seconds.
Warning: Simulation tolerance relaxed to achieve convergence from 1.0343316494665444e-03 to 1.0343316494665544e-03 seconds.
Warning: Simulation tolerance relaxed to achieve convergence from 1.0343316494665544e-03 to 1.0343316494665644e-03 seconds.
Warning: Simulation tolerance relaxed to achieve convergence from 1.0343316494665644e-03 to 1.0343316494665744e-03 seconds.
Warning: Simulation tolerance relaxed to achieve convergence from 1.0343316494665744e-03 to 1.0343316494665843e-03 seconds.
Warning: Simulation tolerance relaxed to achieve convergence from 1.0393316455688476e-03 to 1.0393316455688576e-03 seconds.
Warning: Simulation tolerance relaxed to achieve convergence from 1.0393316455688576e-03 to 1.0393316455688676e-03 seconds.
Warning: Simulation tolerance relaxed to achieve convergence from 1.0393316455690074e-03 to 1.0393316455690174e-03 seconds.
Warning: Simulation tolerance relaxed to achieve convergence from 1.0393316455690174e-03 to 1.0393316455690274e-03 seconds.
Warning: Simulation tolerance relaxed to achieve convergence from 1.0393316455690274e-03 to 1.0393316455690374e-03 seconds.
Warning: Simulation tolerance relaxed to achieve convergence from 1.0393316455690374e-03 to 1.0393316455690473e-03 seconds.
Warning: Simulation tolerance relaxed to achieve convergence from 1.0393316455690473e-03 to 1.0393316455690573e-03 seconds.
Warning: Simulation tolerance relaxed to achieve convergence from 1.0393316455690573e-03 to 1.0393316455690673e-03 seconds.
Warning: Simulation tolerance relaxed to achieve convergence from 1.0393316455690673e-03 to 1.0393316455690773e-03 seconds.
Warning: Simulation tolerance relaxed to achieve convergence from 1.0393316455690773e-03 to 1.0393316455690872e-03 seconds.
Warning: Simulation tolerance relaxed to achieve convergence from 1.0393316455690872e-03 to 1.0393316455690972e-03 seconds.
Warning: Simulation tolerance relaxed to achieve convergence from 1.0393316455690972e-03 to 1.0393316455691072e-03 seconds.
Warning: Simulation tolerance relaxed to achieve convergence from 1.0393316455691072e-03 to 1.0393316455691172e-03 seconds.
Warning: Simulation tolerance relaxed to achieve convergence from 1.0393316455692570e-03 to 1.0393316455692670e-03 seconds.
Warning: Simulation tolerance relaxed to achieve convergence from 1.0393316455692670e-03 to 1.0393316455692770e-03 seconds.
Warning: Simulation tolerance relaxed to achieve convergence from 1.0393316455692770e-03 to 1.0393316455692869e-03 seconds.
Warning: Simulation tolerance relaxed to achieve convergence from 1.0393316455692869e-03 to 1.0393316455692969e-03 seconds.
Warning: Simulation tolerance relaxed to achieve convergence from 1.0393316455692969e-03 to 1.0393316455693069e-03 seconds.
Warning: Simulation tolerance relaxed to achieve convergence from 1.0393316455693069e-03 to 1.0393316455693169e-03 seconds.
Warning: Simulation tolerance relaxed to achieve convergence from 1.0393316455694567e-03 to 1.0393316455694667e-03 seconds.
Warning: Simulation tolerance relaxed to achieve convergence from 1.0393316455694667e-03 to 1.0393316455694767e-03 seconds.
Warning: Simulation tolerance relaxed to achieve convergence from 1.0443316418762207e-03 to 1.0443316418762307e-03 seconds.
Warning: Simulation tolerance relaxed to achieve convergence from 1.0443316418762307e-03 to 1.0443316418762406e-03 seconds.
Warning: Simulation tolerance relaxed to achieve convergence from 1.0493316383709905e-03 to 1.0493316383710005e-03 seconds.
Warning: Simulation tolerance relaxed to achieve convergence from 1.0493316383710005e-03 to 1.0493316383710105e-03 seconds.
Warning: Simulation tolerance relaxed to achieve convergence from 1.0493316383710105e-03 to 1.0493316383710205e-03 seconds.
Warning: Simulation tolerance relaxed to achieve convergence from 1.0493316383710205e-03 to 1.0493316383710304e-03 seconds.
Warning: Simulation tolerance relaxed to achieve convergence from 1.0493316383710304e-03 to 1.0493316383710404e-03 seconds.
Warning: Simulation tolerance relaxed to achieve convergence from 1.0493316383710404e-03 to 1.0493316383710504e-03 seconds.
Warning: Simulation tolerance relaxed to achieve convergence from 1.0493316383710504e-03 to 1.0493316383710604e-03 seconds.
Warning: Simulation tolerance relaxed to achieve convergence from 1.0493316383710604e-03 to 1.0493316383710703e-03 seconds.
Warning: Simulation tolerance relaxed to achieve convergence from 1.0493316383710703e-03 to 1.0493316383710803e-03 seconds.
Warning: Simulation tolerance relaxed to achieve convergence from 1.0493316383710803e-03 to 1.0493316383710903e-03 seconds.
Warning: Simulation tolerance relaxed to achieve convergence from 1.0493316383710903e-03 to 1.0493316383711003e-03 seconds.
Warning: Simulation tolerance relaxed to achieve convergence from 1.0493316383711003e-03 to 1.0493316383711102e-03 seconds.
Warning: Simulation tolerance relaxed to achieve convergence from 1.0543316350809884e-03 to 1.0543316350809984e-03 seconds.
Warning: Simulation tolerance relaxed to achieve convergence from 1.0593316319873430e-03 to 1.0593316319873530e-03 seconds.
Warning: Simulation tolerance relaxed to achieve convergence from 1.0593316319873530e-03 to 1.0593316319873630e-03 seconds.
Warning: Simulation tolerance relaxed to achieve convergence from 1.0643316290855406e-03 to 1.0643316290855505e-03 seconds.
Warning: Simulation tolerance relaxed to achieve convergence from 1.0693316263680457e-03 to 1.0693316263680557e-03 seconds.
Warning: Simulation tolerance relaxed to achieve convergence from 1.0743316238327025e-03 to 1.0743316238327125e-03 seconds.
Warning: Simulation tolerance relaxed to achieve convergence from 1.0743316238327125e-03 to 1.0743316238327224e-03 seconds.
Warning: Simulation tolerance relaxed to achieve convergence from 1.0743316238327224e-03 to 1.0743316238327324e-03 seconds.
Warning: Simulation tolerance relaxed to achieve convergence from 1.0743316238327324e-03 to 1.0743316238327424e-03 seconds.
Warning: Simulation tolerance relaxed to achieve convergence from 1.0743316238327424e-03 to 1.0743316238327524e-03 seconds.
Warning: Simulation tolerance relaxed to achieve convergence from 1.0743316238327524e-03 to 1.0743316238327623e-03 seconds.
Warning: Simulation tolerance relaxed to achieve convergence from 1.0743316238327623e-03 to 1.0743316238327723e-03 seconds.
Warning: Simulation tolerance relaxed to achieve convergence from 1.0743316238327723e-03 to 1.0743316238327823e-03 seconds.
Warning: Simulation tolerance relaxed to achieve convergence from 1.0743316238327823e-03 to 1.0743316238327923e-03 seconds.
Warning: Simulation tolerance relaxed to achieve convergence from 1.0743316238327923e-03 to 1.0743316238328022e-03 seconds.
Warning: Simulation tolerance relaxed to achieve convergence from 1.0743316238328022e-03 to 1.0743316238328122e-03 seconds.
Warning: Simulation tolerance relaxed to achieve convergence from 1.0743316238328122e-03 to 1.0743316238328222e-03 seconds.
Warning: Simulation tolerance relaxed to achieve convergence from 1.0743316238328222e-03 to 1.0743316238328322e-03 seconds.
Warning: Simulation tolerance relaxed to achieve convergence from 1.0743316238328322e-03 to 1.0743316238328421e-03 seconds.
Warning: Simulation tolerance relaxed to achieve convergence from 1.0743316238328421e-03 to 1.0743316238328521e-03 seconds.
Warning: Simulation tolerance relaxed to achieve convergence from 1.0743316238328521e-03 to 1.0743316238328621e-03 seconds.
Warning: Simulation tolerance relaxed to achieve convergence from 1.0743316238328621e-03 to 1.0743316238328721e-03 seconds.
Warning: Simulation tolerance relaxed to achieve convergence from 1.0743316238328721e-03 to 1.0743316238328820e-03 seconds.
Warning: Simulation tolerance relaxed to achieve convergence from 1.0793316214714052e-03 to 1.0793316214714151e-03 seconds.
Warning: Simulation tolerance relaxed to achieve convergence from 1.0793316214714151e-03 to 1.0793316214714251e-03 seconds.
Warning: Simulation tolerance relaxed to achieve convergence from 1.0843316192775316e-03 to 1.0843316192775416e-03 seconds.
Warning: Simulation tolerance relaxed to achieve convergence from 1.0893316172494883e-03 to 1.0893316172494983e-03 seconds.
Warning: Simulation tolerance relaxed to achieve convergence from 1.0893316172494983e-03 to 1.0893316172495083e-03 seconds.
Warning: Simulation tolerance relaxed to achieve convergence from 1.0893316172495083e-03 to 1.0893316172495182e-03 seconds.
Warning: Simulation tolerance relaxed to achieve convergence from 1.0893316172495182e-03 to 1.0893316172495282e-03 seconds.
Warning: Simulation tolerance relaxed to achieve convergence from 1.0893316172498780e-03 to 1.0893316172498879e-03 seconds.
Warning: Simulation tolerance relaxed to achieve convergence from 1.0893316172498879e-03 to 1.0893316172498979e-03 seconds.
Warning: Simulation tolerance relaxed to achieve convergence from 1.0893316172498979e-03 to 1.0893316172499079e-03 seconds.
Warning: Simulation tolerance relaxed to achieve convergence from 1.0893316172499079e-03 to 1.0893316172499179e-03 seconds.
Warning: Simulation tolerance relaxed to achieve convergence from 1.0893316172499179e-03 to 1.0893316172499278e-03 seconds.
Warning: Simulation tolerance relaxed to achieve convergence from 1.0893316172499278e-03 to 1.0893316172499378e-03 seconds.
Warning: Simulation tolerance relaxed to achieve convergence from 1.0893316172499378e-03 to 1.0893316172499478e-03 seconds.
Warning: Simulation tolerance relaxed to achieve convergence from 1.0893316172499478e-03 to 1.0893316172499578e-03 seconds.
Warning: Simulation tolerance relaxed to achieve convergence from 1.0893316172499578e-03 to 1.0893316172499677e-03 seconds.
Warning: Simulation tolerance relaxed to achieve convergence from 1.0893316172499677e-03 to 1.0893316172499777e-03 seconds.
Warning: Simulation tolerance relaxed to achieve convergence from 1.0893316172499777e-03 to 1.0893316172499877e-03 seconds.
Warning: Simulation tolerance relaxed to achieve convergence from 1.0893316172499877e-03 to 1.0893316172499977e-03 seconds.
Warning: Simulation tolerance relaxed to achieve convergence from 1.0893316172499977e-03 to 1.0893316172500076e-03 seconds.
Warning: Simulation tolerance relaxed to achieve convergence from 1.0893316172500076e-03 to 1.0893316172500176e-03 seconds.
Warning: Simulation tolerance relaxed to achieve convergence from 1.0893316172500176e-03 to 1.0893316172500276e-03 seconds.
Warning: Simulation tolerance relaxed to achieve convergence from 1.0893316172500276e-03 to 1.0893316172500376e-03 seconds.
Warning: Simulation tolerance relaxed to achieve convergence from 1.0893316172500376e-03 to 1.0893316172500475e-03 seconds.
Warning: Simulation tolerance relaxed to achieve convergence from 1.0893316172500475e-03 to 1.0893316172500575e-03 seconds.
Warning: Simulation tolerance relaxed to achieve convergence from 1.0893316172500575e-03 to 1.0893316172500675e-03 seconds.
Warning: Simulation tolerance relaxed to achieve convergence from 1.0893316172500675e-03 to 1.0893316172500775e-03 seconds.
Warning: Simulation tolerance relaxed to achieve convergence from 1.0893316172500775e-03 to 1.0893316172500874e-03 seconds.
Warning: Simulation tolerance relaxed to achieve convergence from 1.0893316172500874e-03 to 1.0893316172500974e-03 seconds.
Warning: Simulation tolerance relaxed to achieve convergence from 1.0893316172500974e-03 to 1.0893316172501074e-03 seconds.
Warning: Simulation tolerance relaxed to achieve convergence from 1.0943316153869626e-03 to 1.0943316153869725e-03 seconds.
Warning: Simulation tolerance relaxed to achieve convergence from 1.0943316153869725e-03 to 1.0943316153869825e-03 seconds.
Warning: Simulation tolerance relaxed to achieve convergence from 1.0943316153869825e-03 to 1.0943316153869925e-03 seconds.
Warning: Simulation tolerance relaxed to achieve convergence from 1.1093316106605528e-03 to 1.1093316106605628e-03 seconds.
Warning: Simulation tolerance relaxed to achieve convergence from 1.1093316106605628e-03 to 1.1093316106605727e-03 seconds.
Warning: Simulation tolerance relaxed to achieve convergence from 1.1093316106605727e-03 to 1.1093316106605827e-03 seconds.
Warning: Simulation tolerance relaxed to achieve convergence from 1.1093316106605827e-03 to 1.1093316106605927e-03 seconds.
Warning: Simulation tolerance relaxed to achieve convergence from 1.1093316106605927e-03 to 1.1093316106606027e-03 seconds.
Warning: Simulation tolerance relaxed to achieve convergence from 1.1093316106606027e-03 to 1.1093316106606126e-03 seconds.
Warning: Simulation tolerance relaxed to achieve convergence from 1.1093316106606126e-03 to 1.1093316106606226e-03 seconds.
Warning: Simulation tolerance relaxed to achieve convergence from 1.1093316106606226e-03 to 1.1093316106606326e-03 seconds.
Warning: Simulation tolerance relaxed to achieve convergence from 1.1093316106606326e-03 to 1.1093316106606426e-03 seconds.
Warning: Simulation tolerance relaxed to achieve convergence from 1.1093316106606426e-03 to 1.1093316106606525e-03 seconds.
Warning: Simulation tolerance relaxed to achieve convergence from 1.1093316106606525e-03 to 1.1093316106606625e-03 seconds.
Warning: Simulation tolerance relaxed to achieve convergence from 1.1093316106606625e-03 to 1.1093316106606725e-03 seconds.
Warning: Simulation tolerance relaxed to achieve convergence from 1.1093316106606725e-03 to 1.1093316106606825e-03 seconds.
Warning: Simulation tolerance relaxed to achieve convergence from 1.1093316106606825e-03 to 1.1093316106606924e-03 seconds.
Warning: Simulation tolerance relaxed to achieve convergence from 1.1093316106606924e-03 to 1.1093316106607024e-03 seconds.
Warning: Simulation tolerance relaxed to achieve convergence from 1.1093316106607024e-03 to 1.1093316106607124e-03 seconds.
Warning: Simulation tolerance relaxed to achieve convergence from 1.1093316106607124e-03 to 1.1093316106607224e-03 seconds.
Warning: Simulation tolerance relaxed to achieve convergence from 1.1093316106607224e-03 to 1.1093316106607323e-03 seconds.
Warning: Simulation tolerance relaxed to achieve convergence from 1.1093316106607323e-03 to 1.1093316106607423e-03 seconds.
Warning: Simulation tolerance relaxed to achieve convergence from 1.1093316106607423e-03 to 1.1093316106607523e-03 seconds.
Warning: Simulation tolerance relaxed to achieve convergence from 1.1093316106607523e-03 to 1.1093316106607623e-03 seconds.
Warning: Simulation tolerance relaxed to achieve convergence from 1.1093316106607623e-03 to 1.1093316106607722e-03 seconds.
Warning: Simulation tolerance relaxed to achieve convergence from 1.1093316106607722e-03 to 1.1093316106607822e-03 seconds.
Warning: Simulation tolerance relaxed to achieve convergence from 1.1093316106607822e-03 to 1.1093316106607922e-03 seconds.
Warning: Simulation tolerance relaxed to achieve convergence from 1.1093316106607922e-03 to 1.1093316106608022e-03 seconds.
Warning: Simulation tolerance relaxed to achieve convergence from 1.1093316106608022e-03 to 1.1093316106608121e-03 seconds.
Warning: Simulation tolerance relaxed to achieve convergence from 1.1093316106608121e-03 to 1.1093316106608221e-03 seconds.
Warning: Simulation tolerance relaxed to achieve convergence from 1.1093316106608221e-03 to 1.1093316106608321e-03 seconds.
Warning: Simulation tolerance relaxed to achieve convergence from 1.1093316106608321e-03 to 1.1093316106608421e-03 seconds.
Warning: Simulation tolerance relaxed to achieve convergence from 1.1093316106609219e-03 to 1.1093316106609318e-03 seconds.
Warning: Simulation tolerance relaxed to achieve convergence from 1.1093316106609318e-03 to 1.1093316106609418e-03 seconds.
Warning: Simulation tolerance relaxed to achieve convergence from 1.1093316106609418e-03 to 1.1093316106609518e-03 seconds.
Warning: Simulation tolerance relaxed to achieve convergence from 1.1093316106609518e-03 to 1.1093316106609618e-03 seconds.
Warning: Simulation tolerance relaxed to achieve convergence from 1.1093316106611216e-03 to 1.1093316106611315e-03 seconds.
Warning: Simulation tolerance relaxed to achieve convergence from 1.1093316106611315e-03 to 1.1093316106611415e-03 seconds.
Warning: Simulation tolerance relaxed to achieve convergence from 1.1093316106611415e-03 to 1.1093316106611515e-03 seconds.
Warning: Simulation tolerance relaxed to achieve convergence from 1.1093316106611515e-03 to 1.1093316106611615e-03 seconds.
Warning: Simulation tolerance relaxed to achieve convergence from 1.1093316106611615e-03 to 1.1093316106611714e-03 seconds.
Warning: Simulation tolerance relaxed to achieve convergence from 1.1093316106611714e-03 to 1.1093316106611814e-03 seconds.
Warning: Simulation tolerance relaxed to achieve convergence from 1.1093316106611814e-03 to 1.1093316106611914e-03 seconds.
Warning: Simulation tolerance relaxed to achieve convergence from 1.1093316106611914e-03 to 1.1093316106612014e-03 seconds.
Warning: Simulation tolerance relaxed to achieve convergence from 1.1093316106612014e-03 to 1.1093316106612113e-03 seconds.
Warning: Simulation tolerance relaxed to achieve convergence from 1.1093316106612113e-03 to 1.1093316106612213e-03 seconds.
Warning: Simulation tolerance relaxed to achieve convergence from 1.1093316106612213e-03 to 1.1093316106612313e-03 seconds.
Warning: Simulation tolerance relaxed to achieve convergence from 1.1093316106612313e-03 to 1.1093316106612413e-03 seconds.
Warning: Simulation tolerance relaxed to achieve convergence from 1.1093316106612413e-03 to 1.1093316106612512e-03 seconds.
Warning: Simulation tolerance relaxed to achieve convergence from 1.1093316106612512e-03 to 1.1093316106612612e-03 seconds.
Warning: Simulation tolerance relaxed to achieve convergence from 1.1093316106612612e-03 to 1.1093316106612712e-03 seconds.
Warning: Simulation tolerance relaxed to achieve convergence from 1.1093316106612712e-03 to 1.1093316106612812e-03 seconds.
Warning: Simulation tolerance relaxed to achieve convergence from 1.1093316106612812e-03 to 1.1093316106612911e-03 seconds.
Warning: Simulation tolerance relaxed to achieve convergence from 1.1093316106612911e-03 to 1.1093316106613011e-03 seconds.
Warning: Simulation tolerance relaxed to achieve convergence from 1.1093316106613011e-03 to 1.1093316106613111e-03 seconds.
Warning: Simulation tolerance relaxed to achieve convergence from 1.1093316106613111e-03 to 1.1093316106613211e-03 seconds.
Warning: Simulation tolerance relaxed to achieve convergence from 1.1093316106613211e-03 to 1.1093316106613310e-03 seconds.
Warning: Simulation tolerance relaxed to achieve convergence from 1.1093316106613310e-03 to 1.1093316106613410e-03 seconds.
Warning: Simulation tolerance relaxed to achieve convergence from 1.1093316106613410e-03 to 1.1093316106613510e-03 seconds.
Warning: Simulation tolerance relaxed to achieve convergence from 1.1093316106614208e-03 to 1.1093316106614308e-03 seconds.
Warning: Simulation tolerance relaxed to achieve convergence from 1.1093316106614308e-03 to 1.1093316106614408e-03 seconds.
Warning: Simulation tolerance relaxed to achieve convergence from 1.1093316106614408e-03 to 1.1093316106614507e-03 seconds.
Warning: Simulation tolerance relaxed to achieve convergence from 1.1093316106614507e-03 to 1.1093316106614607e-03 seconds.
Warning: Simulation tolerance relaxed to achieve convergence from 1.1093316106614607e-03 to 1.1093316106614707e-03 seconds.
Warning: Simulation tolerance relaxed to achieve convergence from 1.1093316106614707e-03 to 1.1093316106614807e-03 seconds.
Warning: Simulation tolerance relaxed to achieve convergence from 1.1093316106614807e-03 to 1.1093316106614906e-03 seconds.
Warning: Simulation tolerance relaxed to achieve convergence from 1.1093316106614906e-03 to 1.1093316106615006e-03 seconds.
Warning: Simulation tolerance relaxed to achieve convergence from 1.1093316106615006e-03 to 1.1093316106615106e-03 seconds.
Warning: Simulation tolerance relaxed to achieve convergence from 1.1093316106615106e-03 to 1.1093316106615206e-03 seconds.
Warning: Simulation tolerance relaxed to achieve convergence from 1.1093316106615206e-03 to 1.1093316106615305e-03 seconds.
Warning: Simulation tolerance relaxed to achieve convergence from 1.1093316106615305e-03 to 1.1093316106615405e-03 seconds.
Warning: Simulation tolerance relaxed to achieve convergence from 1.1093316106615405e-03 to 1.1093316106615505e-03 seconds.
Warning: Simulation tolerance relaxed to achieve convergence from 1.1093316106615505e-03 to 1.1093316106615605e-03 seconds.
Warning: Simulation tolerance relaxed to achieve convergence from 1.1093316106615605e-03 to 1.1093316106615704e-03 seconds.
Warning: Simulation tolerance relaxed to achieve convergence from 1.1093316106615704e-03 to 1.1093316106615804e-03 seconds.
Warning: Simulation tolerance relaxed to achieve convergence from 1.1093316106615804e-03 to 1.1093316106615904e-03 seconds.
Warning: Simulation tolerance relaxed to achieve convergence from 1.1093316106616602e-03 to 1.1093316106616702e-03 seconds.
Warning: Simulation tolerance relaxed to achieve convergence from 1.1093316106616702e-03 to 1.1093316106616802e-03 seconds.
Warning: Simulation tolerance relaxed to achieve convergence from 1.1093316106616802e-03 to 1.1093316106616901e-03 seconds.
Warning: Simulation tolerance relaxed to achieve convergence from 1.1093316106616901e-03 to 1.1093316106617001e-03 seconds.
Warning: Simulation tolerance relaxed to achieve convergence from 1.1093316106617699e-03 to 1.1093316106617799e-03 seconds.
Warning: Simulation tolerance relaxed to achieve convergence from 1.1093316106617799e-03 to 1.1093316106617899e-03 seconds.
Warning: Simulation tolerance relaxed to achieve convergence from 1.1093316106617899e-03 to 1.1093316106617998e-03 seconds.
Warning: Simulation tolerance relaxed to achieve convergence from 1.1093316106617998e-03 to 1.1093316106618098e-03 seconds.
Warning: Simulation tolerance relaxed to achieve convergence from 1.1093316106618098e-03 to 1.1093316106618198e-03 seconds.
Warning: Simulation tolerance relaxed to achieve convergence from 1.1093316106618198e-03 to 1.1093316106618298e-03 seconds.
Warning: Simulation tolerance relaxed to achieve convergence from 1.1093316106618298e-03 to 1.1093316106618397e-03 seconds.
Warning: Simulation tolerance relaxed to achieve convergence from 1.1093316106618397e-03 to 1.1093316106618497e-03 seconds.
Warning: Simulation tolerance relaxed to achieve convergence from 1.1093316106618497e-03 to 1.1093316106618597e-03 seconds.
Warning: Simulation tolerance relaxed to achieve convergence from 1.1093316106619295e-03 to 1.1093316106619395e-03 seconds.
Warning: Simulation tolerance relaxed to achieve convergence from 1.1093316106619395e-03 to 1.1093316106619495e-03 seconds.
Warning: Simulation tolerance relaxed to achieve convergence from 1.1143316093788144e-03 to 1.1143316093788244e-03 seconds.
Warning: Simulation tolerance relaxed to achieve convergence from 1.1243316071443707e-03 to 1.1243316071443807e-03 seconds.
Warning: Simulation tolerance relaxed to achieve convergence from 1.1293316062123231e-03 to 1.1293316062123331e-03 seconds.
Warning: Simulation tolerance relaxed to achieve convergence from 1.1343316053895947e-03 to 1.1343316053896047e-03 seconds.
Warning: Simulation tolerance relaxed to achieve convergence from 1.1343316053896047e-03 to 1.1343316053896147e-03 seconds.
Warning: Simulation tolerance relaxed to achieve convergence from 1.1393316046695112e-03 to 1.1393316046695212e-03 seconds.
Warning: Simulation tolerance relaxed to achieve convergence from 1.1443316040649415e-03 to 1.1443316040649514e-03 seconds.
Warning: Simulation tolerance relaxed to achieve convergence from 1.1443316040649514e-03 to 1.1443316040649614e-03 seconds.
Warning: Simulation tolerance relaxed to achieve convergence from 1.1443316040649614e-03 to 1.1443316040649714e-03 seconds.
Warning: Simulation tolerance relaxed to achieve convergence from 1.1543316030618550e-03 to 1.1543316030618650e-03 seconds.
Warning: Simulation tolerance relaxed to achieve convergence from 1.1543316030618650e-03 to 1.1543316030618749e-03 seconds.
Warning: Simulation tolerance relaxed to achieve convergence from 1.1593316026883075e-03 to 1.1593316026883174e-03 seconds.
Warning: Simulation tolerance relaxed to achieve convergence from 1.1643316024093626e-03 to 1.1643316024093726e-03 seconds.
Warning: Simulation tolerance relaxed to achieve convergence from 1.1643316024093726e-03 to 1.1643316024093826e-03 seconds.
Warning: Simulation tolerance relaxed to achieve convergence from 1.1643316024093826e-03 to 1.1643316024093926e-03 seconds.
Warning: Simulation tolerance relaxed to achieve convergence from 1.1643316024093926e-03 to 1.1643316024094025e-03 seconds.
Warning: Simulation tolerance relaxed to achieve convergence from 1.1643316024094025e-03 to 1.1643316024094125e-03 seconds.
Warning: Simulation tolerance relaxed to achieve convergence from 1.1643316024094125e-03 to 1.1643316024094225e-03 seconds.
Warning: Simulation tolerance relaxed to achieve convergence from 1.1643316024094225e-03 to 1.1643316024094325e-03 seconds.
Warning: Simulation tolerance relaxed to achieve convergence from 1.1643316024094325e-03 to 1.1643316024094424e-03 seconds.
Warning: Simulation tolerance relaxed to achieve convergence from 1.1643316024094424e-03 to 1.1643316024094524e-03 seconds.
Warning: Simulation tolerance relaxed to achieve convergence from 1.1643316024094524e-03 to 1.1643316024094624e-03 seconds.
Warning: Simulation tolerance relaxed to achieve convergence from 1.1643316024094624e-03 to 1.1643316024094724e-03 seconds.
Warning: Simulation tolerance relaxed to achieve convergence from 1.1643316024094724e-03 to 1.1643316024094823e-03 seconds.
Warning: Simulation tolerance relaxed to achieve convergence from 1.1643316024094823e-03 to 1.1643316024094923e-03 seconds.
Warning: Simulation tolerance relaxed to achieve convergence from 1.1643316024094923e-03 to 1.1643316024095023e-03 seconds.
Warning: Simulation tolerance relaxed to achieve convergence from 1.1643316024095023e-03 to 1.1643316024095123e-03 seconds.
Warning: Simulation tolerance relaxed to achieve convergence from 1.1643316024095123e-03 to 1.1643316024095222e-03 seconds.
Warning: Simulation tolerance relaxed to achieve convergence from 1.1643316024095222e-03 to 1.1643316024095322e-03 seconds.
Warning: Simulation tolerance relaxed to achieve convergence from 1.1643316024095322e-03 to 1.1643316024095422e-03 seconds.
Warning: Simulation tolerance relaxed to achieve convergence from 1.1643316024095422e-03 to 1.1643316024095521e-03 seconds.
Warning: Simulation tolerance relaxed to achieve convergence from 1.1643316024095521e-03 to 1.1643316024095621e-03 seconds.
Warning: Simulation tolerance relaxed to achieve convergence from 1.1643316024095621e-03 to 1.1643316024095721e-03 seconds.
Warning: Simulation tolerance relaxed to achieve convergence from 1.1643316024095721e-03 to 1.1643316024095821e-03 seconds.
Warning: Simulation tolerance relaxed to achieve convergence from 1.1643316024095821e-03 to 1.1643316024095920e-03 seconds.
Warning: Simulation tolerance relaxed to achieve convergence from 1.1643316024095920e-03 to 1.1643316024096020e-03 seconds.
Warning: Simulation tolerance relaxed to achieve convergence from 1.1643316024096020e-03 to 1.1643316024096120e-03 seconds.
Warning: Simulation tolerance relaxed to achieve convergence from 1.1643316024096120e-03 to 1.1643316024096220e-03 seconds.
Warning: Simulation tolerance relaxed to achieve convergence from 1.1643316024096220e-03 to 1.1643316024096319e-03 seconds.
Warning: Simulation tolerance relaxed to achieve convergence from 1.1643316024096319e-03 to 1.1643316024096419e-03 seconds.
Warning: Simulation tolerance relaxed to achieve convergence from 1.1643316024096419e-03 to 1.1643316024096519e-03 seconds.
Warning: Simulation tolerance relaxed to achieve convergence from 1.1643316024096519e-03 to 1.1643316024096619e-03 seconds.
Warning: Simulation tolerance relaxed to achieve convergence from 1.1643316024096619e-03 to 1.1643316024096718e-03 seconds.
Warning: Simulation tolerance relaxed to achieve convergence from 1.1643316024096718e-03 to 1.1643316024096818e-03 seconds.
Warning: Simulation tolerance relaxed to achieve convergence from 1.1643316024096818e-03 to 1.1643316024096918e-03 seconds.
Warning: Simulation tolerance relaxed to achieve convergence from 1.1643316024096918e-03 to 1.1643316024097018e-03 seconds.
Warning: Simulation tolerance relaxed to achieve convergence from 1.1643316024097018e-03 to 1.1643316024097117e-03 seconds.
Warning: Simulation tolerance relaxed to achieve convergence from 1.1643316024097117e-03 to 1.1643316024097217e-03 seconds.
Warning: Simulation tolerance relaxed to achieve convergence from 1.1643316024097217e-03 to 1.1643316024097317e-03 seconds.
Warning: Simulation tolerance relaxed to achieve convergence from 1.1643316024097317e-03 to 1.1643316024097417e-03 seconds.
Warning: Simulation tolerance relaxed to achieve convergence from 1.1643316024097417e-03 to 1.1643316024097516e-03 seconds.
Warning: Simulation tolerance relaxed to achieve convergence from 1.1643316024097516e-03 to 1.1643316024097616e-03 seconds.
Warning: Simulation tolerance relaxed to achieve convergence from 1.1643316024097616e-03 to 1.1643316024097716e-03 seconds.
Warning: Simulation tolerance relaxed to achieve convergence from 1.1643316024097716e-03 to 1.1643316024097816e-03 seconds.
Warning: Simulation tolerance relaxed to achieve convergence from 1.1643316024097816e-03 to 1.1643316024097915e-03 seconds.
Warning: Simulation tolerance relaxed to achieve convergence from 1.1643316024097915e-03 to 1.1643316024098015e-03 seconds.
Warning: Simulation tolerance relaxed to achieve convergence from 1.1643316024098015e-03 to 1.1643316024098115e-03 seconds.
Warning: Simulation tolerance relaxed to achieve convergence from 1.1643316024098115e-03 to 1.1643316024098215e-03 seconds.
Warning: Simulation tolerance relaxed to achieve convergence from 1.1643316024098215e-03 to 1.1643316024098314e-03 seconds.
Warning: Simulation tolerance relaxed to achieve convergence from 1.1643316024098314e-03 to 1.1643316024098414e-03 seconds.
Warning: Simulation tolerance relaxed to achieve convergence from 1.1643316024098414e-03 to 1.1643316024098514e-03 seconds.
Warning: Simulation tolerance relaxed to achieve convergence from 1.1643316024098514e-03 to 1.1643316024098614e-03 seconds.
Warning: Simulation tolerance relaxed to achieve convergence from 1.1643316024098614e-03 to 1.1643316024098713e-03 seconds.
Warning: Simulation tolerance relaxed to achieve convergence from 1.1643316024098713e-03 to 1.1643316024098813e-03 seconds.
Warning: Simulation tolerance relaxed to achieve convergence from 1.1643316024098813e-03 to 1.1643316024098913e-03 seconds.
Warning: Simulation tolerance relaxed to achieve convergence from 1.1643316024098913e-03 to 1.1643316024099013e-03 seconds.
Warning: Simulation tolerance relaxed to achieve convergence from 1.1643316024099013e-03 to 1.1643316024099112e-03 seconds.
Warning: Simulation tolerance relaxed to achieve convergence from 1.1643316024099112e-03 to 1.1643316024099212e-03 seconds.
Warning: Simulation tolerance relaxed to achieve convergence from 1.1643316024099212e-03 to 1.1643316024099312e-03 seconds.
Warning: Simulation tolerance relaxed to achieve convergence from 1.1643316024099312e-03 to 1.1643316024099412e-03 seconds.
Warning: Simulation tolerance relaxed to achieve convergence from 1.1643316024099412e-03 to 1.1643316024099511e-03 seconds.
Warning: Simulation tolerance relaxed to achieve convergence from 1.1643316024099511e-03 to 1.1643316024099611e-03 seconds.
Warning: Simulation tolerance relaxed to achieve convergence from 1.1643316024099611e-03 to 1.1643316024099711e-03 seconds.
Warning: Simulation tolerance relaxed to achieve convergence from 1.1643316024099711e-03 to 1.1643316024099811e-03 seconds.
Warning: Simulation tolerance relaxed to achieve convergence from 1.1643316024099811e-03 to 1.1643316024099910e-03 seconds.
Warning: Simulation tolerance relaxed to achieve convergence from 1.1643316024099910e-03 to 1.1643316024100010e-03 seconds.
Warning: Simulation tolerance relaxed to achieve convergence from 1.1643316024100010e-03 to 1.1643316024100110e-03 seconds.
Warning: Simulation tolerance relaxed to achieve convergence from 1.1743316019630725e-03 to 1.1743316019630825e-03 seconds.
Warning: Simulation tolerance relaxed to achieve convergence from 1.1743316019630825e-03 to 1.1743316019630925e-03 seconds.
Warning: Simulation tolerance relaxed to achieve convergence from 1.1793316018314356e-03 to 1.1793316018314456e-03 seconds.
Warning: Simulation tolerance relaxed to achieve convergence from 1.1793316018314456e-03 to 1.1793316018314556e-03 seconds.
Warning: Simulation tolerance relaxed to achieve convergence from 1.1793316018314556e-03 to 1.1793316018314656e-03 seconds.
Warning: Simulation tolerance relaxed to achieve convergence from 1.1793316018314656e-03 to 1.1793316018314755e-03 seconds.
Warning: Simulation tolerance relaxed to achieve convergence from 1.1793316018314755e-03 to 1.1793316018314855e-03 seconds.
Warning: Simulation tolerance relaxed to achieve convergence from 1.1793316018314855e-03 to 1.1793316018314955e-03 seconds.
Warning: Simulation tolerance relaxed to achieve convergence from 1.1793316018314955e-03 to 1.1793316018315055e-03 seconds.
Warning: Simulation tolerance relaxed to achieve convergence from 1.1793316018315055e-03 to 1.1793316018315154e-03 seconds.
Warning: Simulation tolerance relaxed to achieve convergence from 1.1793316018315154e-03 to 1.1793316018315254e-03 seconds.
Warning: Simulation tolerance relaxed to achieve convergence from 1.1793316018315254e-03 to 1.1793316018315354e-03 seconds.
Warning: Simulation tolerance relaxed to achieve convergence from 1.1793316018315354e-03 to 1.1793316018315454e-03 seconds.
Warning: Simulation tolerance relaxed to achieve convergence from 1.1793316018315454e-03 to 1.1793316018315553e-03 seconds.
Warning: Simulation tolerance relaxed to achieve convergence from 1.1793316018315553e-03 to 1.1793316018315653e-03 seconds.
Warning: Simulation tolerance relaxed to achieve convergence from 1.1793316018315653e-03 to 1.1793316018315753e-03 seconds.
Warning: Simulation tolerance relaxed to achieve convergence from 1.1793316018315753e-03 to 1.1793316018315853e-03 seconds.
Warning: Simulation tolerance relaxed to achieve convergence from 1.1793316018315853e-03 to 1.1793316018315952e-03 seconds.
Warning: Simulation tolerance relaxed to achieve convergence from 1.1793316018315952e-03 to 1.1793316018316052e-03 seconds.
Warning: Simulation tolerance relaxed to achieve convergence from 1.1793316018316052e-03 to 1.1793316018316152e-03 seconds.
Warning: Simulation tolerance relaxed to achieve convergence from 1.1793316018316152e-03 to 1.1793316018316252e-03 seconds.
Warning: Simulation tolerance relaxed to achieve convergence from 1.1793316018316252e-03 to 1.1793316018316351e-03 seconds.
Warning: Simulation tolerance relaxed to achieve convergence from 1.1793316018316351e-03 to 1.1793316018316451e-03 seconds.
Warning: Simulation tolerance relaxed to achieve convergence from 1.1793316018316451e-03 to 1.1793316018316551e-03 seconds.
Warning: Simulation tolerance relaxed to achieve convergence from 1.1793316018316551e-03 to 1.1793316018316651e-03 seconds.
Warning: Simulation tolerance relaxed to achieve convergence from 1.1793316018316651e-03 to 1.1793316018316750e-03 seconds.
Warning: Simulation tolerance relaxed to achieve convergence from 1.1793316018316750e-03 to 1.1793316018316850e-03 seconds.
Warning: Simulation tolerance relaxed to achieve convergence from 1.1793316018316850e-03 to 1.1793316018316950e-03 seconds.
Warning: Simulation tolerance relaxed to achieve convergence from 1.1793316018316950e-03 to 1.1793316018317050e-03 seconds.
Warning: Simulation tolerance relaxed to achieve convergence from 1.1793316018317050e-03 to 1.1793316018317149e-03 seconds.
Warning: Simulation tolerance relaxed to achieve convergence from 1.1793316018317149e-03 to 1.1793316018317249e-03 seconds.
Warning: Simulation tolerance relaxed to achieve convergence from 1.1793316018317249e-03 to 1.1793316018317349e-03 seconds.
Warning: Simulation tolerance relaxed to achieve convergence from 1.1793316018317349e-03 to 1.1793316018317449e-03 seconds.
Warning: Simulation tolerance relaxed to achieve convergence from 1.1793316018317449e-03 to 1.1793316018317548e-03 seconds.
Warning: Simulation tolerance relaxed to achieve convergence from 1.1793316018317548e-03 to 1.1793316018317648e-03 seconds.
Warning: Simulation tolerance relaxed to achieve convergence from 1.1793316018317648e-03 to 1.1793316018317748e-03 seconds.
Warning: Simulation tolerance relaxed to achieve convergence from 1.1793316018317748e-03 to 1.1793316018317848e-03 seconds.
Warning: Simulation tolerance relaxed to achieve convergence from 1.1793316018317848e-03 to 1.1793316018317947e-03 seconds.
Warning: Simulation tolerance relaxed to achieve convergence from 1.1793316018317947e-03 to 1.1793316018318047e-03 seconds.
Warning: Simulation tolerance relaxed to achieve convergence from 1.1793316018318047e-03 to 1.1793316018318147e-03 seconds.
Warning: Simulation tolerance relaxed to achieve convergence from 1.1793316018318147e-03 to 1.1793316018318247e-03 seconds.
Warning: Simulation tolerance relaxed to achieve convergence from 1.1793316018318247e-03 to 1.1793316018318346e-03 seconds.
Warning: Simulation tolerance relaxed to achieve convergence from 1.1843316017427440e-03 to 1.1843316017427540e-03 seconds.
Warning: Simulation tolerance relaxed to achieve convergence from 1.1843316017427540e-03 to 1.1843316017427640e-03 seconds.
Warning: Simulation tolerance relaxed to achieve convergence from 1.1893316016921502e-03 to 1.1893316016921601e-03 seconds.
Warning: Simulation tolerance relaxed to achieve convergence from 1.1893316016921601e-03 to 1.1893316016921701e-03 seconds.
Warning: Simulation tolerance relaxed to achieve convergence from 1.1893316016921701e-03 to 1.1893316016921801e-03 seconds.
Warning: Simulation tolerance relaxed to achieve convergence from 1.1893316016921801e-03 to 1.1893316016921901e-03 seconds.
Warning: Simulation tolerance relaxed to achieve convergence from 1.1893316016921901e-03 to 1.1893316016922000e-03 seconds.
Warning: Simulation tolerance relaxed to achieve convergence from 1.1893316016922000e-03 to 1.1893316016922100e-03 seconds.
Warning: Simulation tolerance relaxed to achieve convergence from 1.1893316016922100e-03 to 1.1893316016922200e-03 seconds.
Warning: Simulation tolerance relaxed to achieve convergence from 1.1893316016922200e-03 to 1.1893316016922300e-03 seconds.
Warning: Simulation tolerance relaxed to achieve convergence from 1.1893316016922300e-03 to 1.1893316016922399e-03 seconds.
Warning: Simulation tolerance relaxed to achieve convergence from 1.1893316016922399e-03 to 1.1893316016922499e-03 seconds.
Warning: Simulation tolerance relaxed to achieve convergence from 1.1893316016922499e-03 to 1.1893316016922599e-03 seconds.
Warning: Simulation tolerance relaxed to achieve convergence from 1.1893316016922599e-03 to 1.1893316016922699e-03 seconds.
Warning: Simulation tolerance relaxed to achieve convergence from 1.1893316016922699e-03 to 1.1893316016922798e-03 seconds.
Warning: Simulation tolerance relaxed to achieve convergence from 1.1893316016922798e-03 to 1.1893316016922898e-03 seconds.
Warning: Simulation tolerance relaxed to achieve convergence from 1.1893316016922898e-03 to 1.1893316016922998e-03 seconds.
Warning: Simulation tolerance relaxed to achieve convergence from 1.1893316016922998e-03 to 1.1893316016923098e-03 seconds.
Warning: Simulation tolerance relaxed to achieve convergence from 1.1893316016923098e-03 to 1.1893316016923197e-03 seconds.
Warning: Simulation tolerance relaxed to achieve convergence from 1.1893316016923197e-03 to 1.1893316016923297e-03 seconds.
Warning: Simulation tolerance relaxed to achieve convergence from 1.1893316016923297e-03 to 1.1893316016923397e-03 seconds.
Warning: Simulation tolerance relaxed to achieve convergence from 1.1893316016923397e-03 to 1.1893316016923497e-03 seconds.
Warning: Simulation tolerance relaxed to achieve convergence from 1.1893316016923497e-03 to 1.1893316016923596e-03 seconds.
Warning: Simulation tolerance relaxed to achieve convergence from 1.1893316016923596e-03 to 1.1893316016923696e-03 seconds.
Warning: Simulation tolerance relaxed to achieve convergence from 1.1893316016923696e-03 to 1.1893316016923796e-03 seconds.
Warning: Simulation tolerance relaxed to achieve convergence from 1.1893316016923796e-03 to 1.1893316016923896e-03 seconds.
Warning: Simulation tolerance relaxed to achieve convergence from 1.1893316016923896e-03 to 1.1893316016923995e-03 seconds.
Warning: Simulation tolerance relaxed to achieve convergence from 1.1893316016923995e-03 to 1.1893316016924095e-03 seconds.
Warning: Simulation tolerance relaxed to achieve convergence from 1.1893316016924095e-03 to 1.1893316016924195e-03 seconds.
Warning: Simulation tolerance relaxed to achieve convergence from 1.1893316016927194e-03 to 1.1893316016927293e-03 seconds.
Warning: Simulation tolerance relaxed to achieve convergence from 1.1943316016883847e-03 to 1.1943316016883947e-03 seconds.
Warning: Simulation tolerance relaxed to achieve convergence from 1.1943316016883947e-03 to 1.1943316016884047e-03 seconds.
Warning: Simulation tolerance relaxed to achieve convergence from 1.1943316016884047e-03 to 1.1943316016884147e-03 seconds.
Warning: Simulation tolerance relaxed to achieve convergence from 1.1943316016884147e-03 to 1.1943316016884246e-03 seconds.
Warning: Simulation tolerance relaxed to achieve convergence from 1.1943316016884246e-03 to 1.1943316016884346e-03 seconds.
Warning: Simulation tolerance relaxed to achieve convergence from 1.1943316016884346e-03 to 1.1943316016884446e-03 seconds.
Warning: Simulation tolerance relaxed to achieve convergence from 1.1943316016884446e-03 to 1.1943316016884546e-03 seconds.
Warning: Simulation tolerance relaxed to achieve convergence from 1.1943316016884546e-03 to 1.1943316016884645e-03 seconds.
Warning: Simulation tolerance relaxed to achieve convergence from 1.1943316016884645e-03 to 1.1943316016884745e-03 seconds.
Warning: Simulation tolerance relaxed to achieve convergence from 1.1943316016885344e-03 to 1.1943316016885443e-03 seconds.
Warning: Simulation tolerance relaxed to achieve convergence from 1.1943316016885443e-03 to 1.1943316016885543e-03 seconds.
Warning: Simulation tolerance relaxed to achieve convergence from 1.1943316016885543e-03 to 1.1943316016885643e-03 seconds.
Warning: Simulation tolerance relaxed to achieve convergence from 1.1943316016885643e-03 to 1.1943316016885743e-03 seconds.
Warning: Simulation tolerance relaxed to achieve convergence from 1.1943316016885743e-03 to 1.1943316016885842e-03 seconds.
Warning: Simulation tolerance relaxed to achieve convergence from 1.1943316016885842e-03 to 1.1943316016885942e-03 seconds.
Warning: Simulation tolerance relaxed to achieve convergence from 1.1943316016885942e-03 to 1.1943316016886042e-03 seconds.
Warning: Simulation tolerance relaxed to achieve convergence from 1.1943316016886042e-03 to 1.1943316016886142e-03 seconds.
Warning: Simulation tolerance relaxed to achieve convergence from 1.1943316016886142e-03 to 1.1943316016886241e-03 seconds.
Warning: Simulation tolerance relaxed to achieve convergence from 1.1943316016886241e-03 to 1.1943316016886341e-03 seconds.
Warning: Simulation tolerance relaxed to achieve convergence from 1.1943316016886341e-03 to 1.1943316016886441e-03 seconds.
Warning: Simulation tolerance relaxed to achieve convergence from 1.1943316016886441e-03 to 1.1943316016886541e-03 seconds.
Warning: Simulation tolerance relaxed to achieve convergence from 1.1943316016887139e-03 to 1.1943316016887239e-03 seconds.
Warning: Simulation tolerance relaxed to achieve convergence from 1.1943316016887239e-03 to 1.1943316016887339e-03 seconds.
Warning: Simulation tolerance relaxed to achieve convergence from 1.1943316016887339e-03 to 1.1943316016887438e-03 seconds.
Warning: Simulation tolerance relaxed to achieve convergence from 1.1943316016887438e-03 to 1.1943316016887538e-03 seconds.
Warning: Simulation tolerance relaxed to achieve convergence from 1.1943316016887538e-03 to 1.1943316016887638e-03 seconds.
Warning: Simulation tolerance relaxed to achieve convergence from 1.1943316016887638e-03 to 1.1943316016887738e-03 seconds.
Warning: Simulation tolerance relaxed to achieve convergence from 1.1943316016887738e-03 to 1.1943316016887837e-03 seconds.
Warning: Simulation tolerance relaxed to achieve convergence from 1.1943316016887837e-03 to 1.1943316016887937e-03 seconds.
Warning: Simulation tolerance relaxed to achieve convergence from 1.1943316016887937e-03 to 1.1943316016888037e-03 seconds.
Warning: Simulation tolerance relaxed to achieve convergence from 1.1943316016888037e-03 to 1.1943316016888137e-03 seconds.
Warning: Simulation tolerance relaxed to achieve convergence from 1.1943316016888137e-03 to 1.1943316016888236e-03 seconds.
Warning: Simulation tolerance relaxed to achieve convergence from 1.1943316016888236e-03 to 1.1943316016888336e-03 seconds.
Warning: Simulation tolerance relaxed to achieve convergence from 1.1943316016888336e-03 to 1.1943316016888436e-03 seconds.
Warning: Simulation tolerance relaxed to achieve convergence from 1.1943316016888436e-03 to 1.1943316016888536e-03 seconds.
Warning: Simulation tolerance relaxed to achieve convergence from 1.1943316016888536e-03 to 1.1943316016888635e-03 seconds.
Warning: Simulation tolerance relaxed to achieve convergence from 1.1943316016888635e-03 to 1.1943316016888735e-03 seconds.
Warning: Simulation tolerance relaxed to achieve convergence from 1.1943316016888735e-03 to 1.1943316016888835e-03 seconds.
Warning: Simulation tolerance relaxed to achieve convergence from 1.1943316016888835e-03 to 1.1943316016888935e-03 seconds.
Warning: Simulation tolerance relaxed to achieve convergence from 1.1943316016888935e-03 to 1.1943316016889034e-03 seconds.
Warning: Simulation tolerance relaxed to achieve convergence from 1.1943316016889034e-03 to 1.1943316016889134e-03 seconds.
Warning: Simulation tolerance relaxed to achieve convergence from 1.1943316016889134e-03 to 1.1943316016889234e-03 seconds.
Warning: Simulation tolerance relaxed to achieve convergence from 1.1943316016889234e-03 to 1.1943316016889334e-03 seconds.
Warning: Simulation tolerance relaxed to achieve convergence from 1.1943316016889334e-03 to 1.1943316016889433e-03 seconds.
Warning: Simulation tolerance relaxed to achieve convergence from 1.1943316016889433e-03 to 1.1943316016889533e-03 seconds.
Warning: Simulation tolerance relaxed to achieve convergence from 1.1943316016890131e-03 to 1.1943316016890231e-03 seconds.
Warning: Simulation tolerance relaxed to achieve convergence from 1.1943316016890231e-03 to 1.1943316016890331e-03 seconds.
Warning: Simulation tolerance relaxed to achieve convergence from 1.1943316016890331e-03 to 1.1943316016890431e-03 seconds.
Warning: Simulation tolerance relaxed to achieve convergence from 1.1943316016890431e-03 to 1.1943316016890530e-03 seconds.
Warning: Simulation tolerance relaxed to achieve convergence from 1.1943316016890530e-03 to 1.1943316016890630e-03 seconds.
Warning: Simulation tolerance relaxed to achieve convergence from 1.1943316016890630e-03 to 1.1943316016890730e-03 seconds.
Warning: Simulation tolerance relaxed to achieve convergence from 1.1943316016890730e-03 to 1.1943316016890830e-03 seconds.
Warning: Simulation tolerance relaxed to achieve convergence from 1.1943316016890830e-03 to 1.1943316016890929e-03 seconds.
Warning: Simulation tolerance relaxed to achieve convergence from 1.1943316016890929e-03 to 1.1943316016891029e-03 seconds.
Warning: Simulation tolerance relaxed to achieve convergence from 1.1943316016891029e-03 to 1.1943316016891129e-03 seconds.
Warning: Simulation tolerance relaxed to achieve convergence from 1.1943316016891129e-03 to 1.1943316016891229e-03 seconds.
Warning: Simulation tolerance relaxed to achieve convergence from 1.1943316016891229e-03 to 1.1943316016891328e-03 seconds.
Warning: Simulation tolerance relaxed to achieve convergence from 1.1943316016891328e-03 to 1.1943316016891428e-03 seconds.
Warning: Simulation tolerance relaxed to achieve convergence from 1.1943316016891428e-03 to 1.1943316016891528e-03 seconds.
Warning: Simulation tolerance relaxed to achieve convergence from 1.1943316016891528e-03 to 1.1943316016891628e-03 seconds.
Warning: Simulation tolerance relaxed to achieve convergence from 1.1943316016891628e-03 to 1.1943316016891727e-03 seconds.
Warning: Simulation tolerance relaxed to achieve convergence from 1.1943316016892326e-03 to 1.1943316016892426e-03 seconds.
Warning: Simulation tolerance relaxed to achieve convergence from 1.1943316016892426e-03 to 1.1943316016892525e-03 seconds.
Warning: Simulation tolerance relaxed to achieve convergence from 1.1943316016893124e-03 to 1.1943316016893224e-03 seconds.
Warning: Simulation tolerance relaxed to achieve convergence from 1.1943316016893224e-03 to 1.1943316016893323e-03 seconds.
Warning: Simulation tolerance relaxed to achieve convergence from 1.1943316016893323e-03 to 1.1943316016893423e-03 seconds.
Warning: Simulation tolerance relaxed to achieve convergence from 1.1943316016893423e-03 to 1.1943316016893523e-03 seconds.
Warning: Simulation tolerance relaxed to achieve convergence from 1.1943316016893523e-03 to 1.1943316016893623e-03 seconds.
Warning: Simulation tolerance relaxed to achieve convergence from 1.1943316016893623e-03 to 1.1943316016893722e-03 seconds.
Warning: Simulation tolerance relaxed to achieve convergence from 1.1943316016893722e-03 to 1.1943316016893822e-03 seconds.
Warning: Simulation tolerance relaxed to achieve convergence from 1.1943316016893822e-03 to 1.1943316016893922e-03 seconds.
Warning: Simulation tolerance relaxed to achieve convergence from 1.1943316016893922e-03 to 1.1943316016894022e-03 seconds.
Warning: Simulation tolerance relaxed to achieve convergence from 1.1943316016894022e-03 to 1.1943316016894121e-03 seconds.
Warning: Simulation tolerance relaxed to achieve convergence from 1.1943316016894121e-03 to 1.1943316016894221e-03 seconds.
Warning: Simulation tolerance relaxed to achieve convergence from 1.1943316016894221e-03 to 1.1943316016894321e-03 seconds.
Warning: Simulation tolerance relaxed to achieve convergence from 1.1943316016894321e-03 to 1.1943316016894421e-03 seconds.
Warning: Simulation tolerance relaxed to achieve convergence from 1.1943316016894421e-03 to 1.1943316016894520e-03 seconds.
Warning: Simulation tolerance relaxed to achieve convergence from 1.1943316016894520e-03 to 1.1943316016894620e-03 seconds.
Warning: Simulation tolerance relaxed to achieve convergence from 1.1943316016894620e-03 to 1.1943316016894720e-03 seconds.
Warning: Simulation tolerance relaxed to achieve convergence from 1.1943316016894720e-03 to 1.1943316016894820e-03 seconds.
Warning: Simulation tolerance relaxed to achieve convergence from 1.1943316016894820e-03 to 1.1943316016894919e-03 seconds.
Warning: Simulation tolerance relaxed to achieve convergence from 1.1943316016894919e-03 to 1.1943316016895019e-03 seconds.
Warning: Simulation tolerance relaxed to achieve convergence from 1.1943316016895019e-03 to 1.1943316016895119e-03 seconds.
Warning: Simulation tolerance relaxed to achieve convergence from 1.1943316016895119e-03 to 1.1943316016895219e-03 seconds.
Warning: Simulation tolerance relaxed to achieve convergence from 1.1943316016895219e-03 to 1.1943316016895318e-03 seconds.
Warning: Simulation tolerance relaxed to achieve convergence from 1.1943316016895318e-03 to 1.1943316016895418e-03 seconds.
Warning: Simulation tolerance relaxed to achieve convergence from 1.1943316016895418e-03 to 1.1943316016895518e-03 seconds.
Warning: Simulation tolerance relaxed to achieve convergence from 1.1943316016895518e-03 to 1.1943316016895618e-03 seconds.
Warning: Simulation tolerance relaxed to achieve convergence from 1.1943316016895618e-03 to 1.1943316016895717e-03 seconds.
Warning: Simulation tolerance relaxed to achieve convergence from 1.1943316016895717e-03 to 1.1943316016895817e-03 seconds.
[...]
Warning: Simulation tolerance relaxed to achieve convergence from 1.6543312657485874e-03 to 1.6543312657485974e-03 seconds.
Warning: Simulation tolerance relaxed to achieve convergence from 1.6543312657485974e-03 to 1.6543312657486074e-03 seconds.
Warning: Simulation tolerance relaxed to achieve convergence from 1.6543312657486074e-03 to 1.6543312657486173e-03 seconds.
Warning: Simulation tolerance relaxed to achieve convergence from 1.6543312657486173e-03 to 1.6543312657486273e-03 seconds.
Warning: Simulation tolerance relaxed to achieve convergence from 1.6543312657486273e-03 to 1.6543312657486373e-03 seconds.
Warning: Simulation tolerance relaxed to achieve convergence from 1.6543312657486373e-03 to 1.6543312657486473e-03 seconds.
Warning: Simulation tolerance relaxed to achieve convergence from 1.6543312657486473e-03 to 1.6543312657486572e-03 seconds.
Warning: Simulation tolerance relaxed to achieve convergence from 1.6543312657486572e-03 to 1.6543312657486672e-03 seconds.
Warning: Simulation tolerance relaxed to achieve convergence from 1.6543312657486672e-03 to 1.6543312657486772e-03 seconds.
Warning: Simulation tolerance relaxed to achieve convergence from 1.6543312657486772e-03 to 1.6543312657486871e-03 seconds.
Warning: Simulation tolerance relaxed to achieve convergence from 1.6543312657486871e-03 to 1.6543312657486971e-03 seconds.
Warning: Simulation tolerance relaxed to achieve convergence from 1.6543312657486971e-03 to 1.6543312657487071e-03 seconds.
Warning: Simulation tolerance relaxed to achieve convergence from 1.6543312657487071e-03 to 1.6543312657487171e-03 seconds.
Warning: Simulation tolerance relaxed to achieve convergence from 1.6543312657487171e-03 to 1.6543312657487270e-03 seconds.
Warning: Simulation tolerance relaxed to achieve convergence from 1.6543312657487270e-03 to 1.6543312657487370e-03 seconds.
Warning: Simulation tolerance relaxed to achieve convergence from 1.6543312657487370e-03 to 1.6543312657487470e-03 seconds.
Warning: Simulation tolerance relaxed to achieve convergence from 1.6543312657487470e-03 to 1.6543312657487570e-03 seconds.
Warning: Simulation tolerance relaxed to achieve convergence from 1.6543312657487570e-03 to 1.6543312657487669e-03 seconds.
Warning: Simulation tolerance relaxed to achieve convergence from 1.6543312657487669e-03 to 1.6543312657487769e-03 seconds.
Warning: Simulation tolerance relaxed to achieve convergence from 1.6543312657487769e-03 to 1.6543312657487869e-03 seconds.
Warning: Simulation tolerance relaxed to achieve convergence from 1.6543312657487869e-03 to 1.6543312657487969e-03 seconds.
Warning: Simulation tolerance relaxed to achieve convergence from 1.6543312657489367e-03 to 1.6543312657489467e-03 seconds.
Warning: Simulation tolerance relaxed to achieve convergence from 1.6543312657489467e-03 to 1.6543312657489567e-03 seconds.
Warning: Simulation tolerance relaxed to achieve convergence from 1.6543312657489567e-03 to 1.6543312657489667e-03 seconds.
Warning: Simulation tolerance relaxed to achieve convergence from 1.6543312657489667e-03 to 1.6543312657489766e-03 seconds.
Warning: Simulation tolerance relaxed to achieve convergence from 1.6543312657489766e-03 to 1.6543312657489866e-03 seconds.
Warning: Simulation tolerance relaxed to achieve convergence from 1.6543312657489866e-03 to 1.6543312657489966e-03 seconds.
Warning: Simulation tolerance relaxed to achieve convergence from 1.6543312657489966e-03 to 1.6543312657490066e-03 seconds.
Warning: Simulation tolerance relaxed to achieve convergence from 1.6543312657490066e-03 to 1.6543312657490165e-03 seconds.
Warning: Simulation tolerance relaxed to achieve convergence from 1.6543312657490165e-03 to 1.6543312657490265e-03 seconds.
Warning: Simulation tolerance relaxed to achieve convergence from 1.6543312657490265e-03 to 1.6543312657490365e-03 seconds.
Warning: Simulation tolerance relaxed to achieve convergence from 1.6543312657490365e-03 to 1.6543312657490465e-03 seconds.
Warning: Simulation tolerance relaxed to achieve convergence from 1.6543312657490465e-03 to 1.6543312657490564e-03 seconds.
Warning: Simulation tolerance relaxed to achieve convergence from 1.6543312657490564e-03 to 1.6543312657490664e-03 seconds.
Warning: Simulation tolerance relaxed to achieve convergence from 1.6543312657490664e-03 to 1.6543312657490764e-03 seconds.
Warning: Simulation tolerance relaxed to achieve convergence from 1.6543312657490764e-03 to 1.6543312657490864e-03 seconds.
Warning: Simulation tolerance relaxed to achieve convergence from 1.6543312657490864e-03 to 1.6543312657490963e-03 seconds.
Warning: Simulation tolerance relaxed to achieve convergence from 1.6543312657490963e-03 to 1.6543312657491063e-03 seconds.
Warning: Simulation tolerance relaxed to achieve convergence from 1.6543312657491761e-03 to 1.6543312657491861e-03 seconds.
Warning: Simulation tolerance relaxed to achieve convergence from 1.6543312657491861e-03 to 1.6543312657491961e-03 seconds.
Warning: Simulation tolerance relaxed to achieve convergence from 1.6543312657491961e-03 to 1.6543312657492060e-03 seconds.
Warning: Simulation tolerance relaxed to achieve convergence from 1.6543312657492060e-03 to 1.6543312657492160e-03 seconds.
Warning: Simulation tolerance relaxed to achieve convergence from 1.6543312657492160e-03 to 1.6543312657492260e-03 seconds.
Warning: Simulation tolerance relaxed to achieve convergence from 1.6543312657492260e-03 to 1.6543312657492360e-03 seconds.
Warning: Simulation tolerance relaxed to achieve convergence from 1.6543312657492360e-03 to 1.6543312657492459e-03 seconds.
Warning: Simulation tolerance relaxed to achieve convergence from 1.6543312657492459e-03 to 1.6543312657492559e-03 seconds.
Warning: Simulation tolerance relaxed to achieve convergence from 1.6543312657493257e-03 to 1.6543312657493357e-03 seconds.
Warning: Simulation tolerance relaxed to achieve convergence from 1.6543312657493357e-03 to 1.6543312657493457e-03 seconds.
Warning: Simulation tolerance relaxed to achieve convergence from 1.6543312657493457e-03 to 1.6543312657493557e-03 seconds.
Warning: Simulation tolerance relaxed to achieve convergence from 1.6543312657493557e-03 to 1.6543312657493656e-03 seconds.
Warning: Simulation tolerance relaxed to achieve convergence from 1.6543312657493656e-03 to 1.6543312657493756e-03 seconds.
Warning: Simulation tolerance relaxed to achieve convergence from 1.6543312657493756e-03 to 1.6543312657493856e-03 seconds.
Warning: Simulation tolerance relaxed to achieve convergence from 1.6543312657493856e-03 to 1.6543312657493956e-03 seconds.
Warning: Simulation tolerance relaxed to achieve convergence from 1.6543312657493956e-03 to 1.6543312657494055e-03 seconds.
Warning: Simulation tolerance relaxed to achieve convergence from 1.6543312657494055e-03 to 1.6543312657494155e-03 seconds.
Warning: Simulation tolerance relaxed to achieve convergence from 1.6543312657494155e-03 to 1.6543312657494255e-03 seconds.
Warning: Simulation tolerance relaxed to achieve convergence from 1.6543312657494255e-03 to 1.6543312657494355e-03 seconds.
Warning: Simulation tolerance relaxed to achieve convergence from 1.6543312657494355e-03 to 1.6543312657494454e-03 seconds.
Warning: Simulation tolerance relaxed to achieve convergence from 1.6543312657494454e-03 to 1.6543312657494554e-03 seconds.
Warning: Simulation tolerance relaxed to achieve convergence from 1.6543312657494554e-03 to 1.6543312657494654e-03 seconds.
Warning: Simulation tolerance relaxed to achieve convergence from 1.6543312657494654e-03 to 1.6543312657494754e-03 seconds.
Warning: Simulation tolerance relaxed to achieve convergence from 1.6543312657494754e-03 to 1.6543312657494853e-03 seconds.
Warning: Simulation tolerance relaxed to achieve convergence from 1.6543312657494853e-03 to 1.6543312657494953e-03 seconds.
Warning: Simulation tolerance relaxed to achieve convergence from 1.6543312657494953e-03 to 1.6543312657495053e-03 seconds.
Warning: Simulation tolerance relaxed to achieve convergence from 1.6543312657495053e-03 to 1.6543312657495153e-03 seconds.
Warning: Simulation tolerance relaxed to achieve convergence from 1.6543312657495153e-03 to 1.6543312657495252e-03 seconds.
Warning: Simulation tolerance relaxed to achieve convergence from 1.6543312657495252e-03 to 1.6543312657495352e-03 seconds.
Warning: Simulation tolerance relaxed to achieve convergence from 1.6543312657496050e-03 to 1.6543312657496150e-03 seconds.
Warning: Simulation tolerance relaxed to achieve convergence from 1.6543312657496150e-03 to 1.6543312657496250e-03 seconds.
Warning: Simulation tolerance relaxed to achieve convergence from 1.6543312657496250e-03 to 1.6543312657496350e-03 seconds.
Warning: Simulation tolerance relaxed to achieve convergence from 1.6543312657496350e-03 to 1.6543312657496449e-03 seconds.
Warning: Simulation tolerance relaxed to achieve convergence from 1.6543312657496449e-03 to 1.6543312657496549e-03 seconds.
Warning: Simulation tolerance relaxed to achieve convergence from 1.6543312657496549e-03 to 1.6543312657496649e-03 seconds.
Warning: Simulation tolerance relaxed to achieve convergence from 1.6543312657496649e-03 to 1.6543312657496749e-03 seconds.
Warning: Simulation tolerance relaxed to achieve convergence from 1.6543312657496749e-03 to 1.6543312657496848e-03 seconds.
Warning: Simulation tolerance relaxed to achieve convergence from 1.6543312657496848e-03 to 1.6543312657496948e-03 seconds.
Warning: Simulation tolerance relaxed to achieve convergence from 1.6543312657496948e-03 to 1.6543312657497048e-03 seconds.
Warning: Simulation tolerance relaxed to achieve convergence from 1.6543312657497048e-03 to 1.6543312657497148e-03 seconds.
Warning: Simulation tolerance relaxed to achieve convergence from 1.6543312657497148e-03 to 1.6543312657497247e-03 seconds.
Warning: Simulation tolerance relaxed to achieve convergence from 1.6543312657497247e-03 to 1.6543312657497347e-03 seconds.
Warning: Simulation tolerance relaxed to achieve convergence from 1.6543312657497347e-03 to 1.6543312657497447e-03 seconds.
Warning: Simulation tolerance relaxed to achieve convergence from 1.6543312657497447e-03 to 1.6543312657497547e-03 seconds.
Warning: Simulation tolerance relaxed to achieve convergence from 1.6543312657497547e-03 to 1.6543312657497646e-03 seconds.
Warning: Simulation tolerance relaxed to achieve convergence from 1.6543312657497646e-03 to 1.6543312657497746e-03 seconds.
Warning: Simulation tolerance relaxed to achieve convergence from 1.6543312657497746e-03 to 1.6543312657497846e-03 seconds.
Warning: Simulation tolerance relaxed to achieve convergence from 1.6543312657497846e-03 to 1.6543312657497946e-03 seconds.
Warning: Simulation tolerance relaxed to achieve convergence from 1.6543312657497946e-03 to 1.6543312657498045e-03 seconds.
Warning: Simulation tolerance relaxed to achieve convergence from 1.6543312657498045e-03 to 1.6543312657498145e-03 seconds.
Warning: Simulation tolerance relaxed to achieve convergence from 1.6543312657498145e-03 to 1.6543312657498245e-03 seconds.
Warning: Simulation tolerance relaxed to achieve convergence from 1.6543312657498245e-03 to 1.6543312657498345e-03 seconds.
Warning: Simulation tolerance relaxed to achieve convergence from 1.6543312657498345e-03 to 1.6543312657498444e-03 seconds.
Warning: Simulation tolerance relaxed to achieve convergence from 1.6543312657498444e-03 to 1.6543312657498544e-03 seconds.
Warning: Simulation tolerance relaxed to achieve convergence from 1.6543312657498544e-03 to 1.6543312657498644e-03 seconds.
Warning: Simulation tolerance relaxed to achieve convergence from 1.6543312657498644e-03 to 1.6543312657498744e-03 seconds.
Warning: Simulation tolerance relaxed to achieve convergence from 1.6543312657499442e-03 to 1.6543312657499541e-03 seconds.
Warning: Simulation tolerance relaxed to achieve convergence from 1.6543312657499541e-03 to 1.6543312657499641e-03 seconds.
Warning: Simulation tolerance relaxed to achieve convergence from 1.6543312657499641e-03 to 1.6543312657499741e-03 seconds.
Warning: Simulation tolerance relaxed to achieve convergence from 1.6543312657499741e-03 to 1.6543312657499841e-03 seconds.
Warning: Simulation tolerance relaxed to achieve convergence from 1.6543312657499841e-03 to 1.6543312657499940e-03 seconds.
Warning: Simulation tolerance relaxed to achieve convergence from 1.6543312657502939e-03 to 1.6543312657503039e-03 seconds.
Warning: Simulation tolerance relaxed to achieve convergence from 1.6543312657503039e-03 to 1.6543312657503139e-03 seconds.
Warning: Simulation tolerance relaxed to achieve convergence from 1.6543312657503139e-03 to 1.6543312657503239e-03 seconds.
Warning: Simulation tolerance relaxed to achieve convergence from 1.6543312657503239e-03 to 1.6543312657503338e-03 seconds.
Warning: Simulation tolerance relaxed to achieve convergence from 1.6543312657503338e-03 to 1.6543312657503438e-03 seconds.
Warning: Simulation tolerance relaxed to achieve convergence from 1.6543312657503438e-03 to 1.6543312657503538e-03 seconds.
Warning: Simulation tolerance relaxed to achieve convergence from 1.6543312657503538e-03 to 1.6543312657503638e-03 seconds.
Warning: Simulation tolerance relaxed to achieve convergence from 1.6543312657503638e-03 to 1.6543312657503737e-03 seconds.
Warning: Simulation tolerance relaxed to achieve convergence from 1.6543312657503737e-03 to 1.6543312657503837e-03 seconds.
Warning: Simulation tolerance relaxed to achieve convergence from 1.6543312657503837e-03 to 1.6543312657503937e-03 seconds.
Warning: Simulation tolerance relaxed to achieve convergence from 1.6543312657503937e-03 to 1.6543312657504037e-03 seconds.
Warning: Simulation tolerance relaxed to achieve convergence from 1.6543312657504037e-03 to 1.6543312657504136e-03 seconds.
Warning: Simulation tolerance relaxed to achieve convergence from 1.6543312657505535e-03 to 1.6543312657505635e-03 seconds.
Warning: Simulation tolerance relaxed to achieve convergence from 1.6543312657505635e-03 to 1.6543312657505734e-03 seconds.
Warning: Simulation tolerance relaxed to achieve convergence from 1.6543312657505734e-03 to 1.6543312657505834e-03 seconds.
Warning: Simulation tolerance relaxed to achieve convergence from 1.6593312589263916e-03 to 1.6593312589264016e-03 seconds.
Warning: Simulation tolerance relaxed to achieve convergence from 1.6593312589264016e-03 to 1.6593312589264116e-03 seconds.
Warning: Simulation tolerance relaxed to achieve convergence from 1.6593312589264116e-03 to 1.6593312589264215e-03 seconds.
Warning: Simulation tolerance relaxed to achieve convergence from 1.6593312589264215e-03 to 1.6593312589264315e-03 seconds.
Warning: Simulation tolerance relaxed to achieve convergence from 1.6593312589264315e-03 to 1.6593312589264415e-03 seconds.
Warning: Simulation tolerance relaxed to achieve convergence from 1.6593312589264415e-03 to 1.6593312589264515e-03 seconds.
Warning: Simulation tolerance relaxed to achieve convergence from 1.6593312589264515e-03 to 1.6593312589264614e-03 seconds.
Warning: Simulation tolerance relaxed to achieve convergence from 1.6593312589264614e-03 to 1.6593312589264714e-03 seconds.
Warning: Simulation tolerance relaxed to achieve convergence from 1.6593312589264714e-03 to 1.6593312589264814e-03 seconds.
Warning: Simulation tolerance relaxed to achieve convergence from 1.6593312589264814e-03 to 1.6593312589264914e-03 seconds.
Warning: Simulation tolerance relaxed to achieve convergence from 1.6593312589264914e-03 to 1.6593312589265013e-03 seconds.
Warning: Simulation tolerance relaxed to achieve convergence from 1.6593312589265013e-03 to 1.6593312589265113e-03 seconds.
Warning: Simulation tolerance relaxed to achieve convergence from 1.6593312589265113e-03 to 1.6593312589265213e-03 seconds.
Warning: Simulation tolerance relaxed to achieve convergence from 1.6593312589265213e-03 to 1.6593312589265313e-03 seconds.
Warning: Simulation tolerance relaxed to achieve convergence from 1.6593312589266911e-03 to 1.6593312589267010e-03 seconds.
Warning: Simulation tolerance relaxed to achieve convergence from 1.6593312589267010e-03 to 1.6593312589267110e-03 seconds.
Warning: Simulation tolerance relaxed to achieve convergence from 1.6593312589267110e-03 to 1.6593312589267210e-03 seconds.
Warning: Simulation tolerance relaxed to achieve convergence from 1.6593312589267210e-03 to 1.6593312589267310e-03 seconds.
Warning: Simulation tolerance relaxed to achieve convergence from 1.6593312589268708e-03 to 1.6593312589268808e-03 seconds.
Warning: Simulation tolerance relaxed to achieve convergence from 1.6593312589268808e-03 to 1.6593312589268908e-03 seconds.
Warning: Simulation tolerance relaxed to achieve convergence from 1.6593312589268908e-03 to 1.6593312589269008e-03 seconds.
Warning: Simulation tolerance relaxed to achieve convergence from 1.6593312589269008e-03 to 1.6593312589269107e-03 seconds.
Warning: Simulation tolerance relaxed to achieve convergence from 1.6593312589269107e-03 to 1.6593312589269207e-03 seconds.
Warning: Simulation tolerance relaxed to achieve convergence from 1.6593312589269207e-03 to 1.6593312589269307e-03 seconds.
Warning: Simulation tolerance relaxed to achieve convergence from 1.6593312589269307e-03 to 1.6593312589269407e-03 seconds.
Warning: Simulation tolerance relaxed to achieve convergence from 1.6593312589269407e-03 to 1.6593312589269506e-03 seconds.
Warning: Simulation tolerance relaxed to achieve convergence from 1.6593312589269506e-03 to 1.6593312589269606e-03 seconds.
Warning: Simulation tolerance relaxed to achieve convergence from 1.6593312589269606e-03 to 1.6593312589269706e-03 seconds.
Warning: Simulation tolerance relaxed to achieve convergence from 1.6593312589269706e-03 to 1.6593312589269806e-03 seconds.
Warning: Simulation tolerance relaxed to achieve convergence from 1.6593312589269806e-03 to 1.6593312589269905e-03 seconds.
Warning: Simulation tolerance relaxed to achieve convergence from 1.6593312589271503e-03 to 1.6593312589271603e-03 seconds.
Warning: Simulation tolerance relaxed to achieve convergence from 1.6593312589271603e-03 to 1.6593312589271703e-03 seconds.
Warning: Simulation tolerance relaxed to achieve convergence from 1.6643312521972657e-03 to 1.6643312521972757e-03 seconds.
Warning: Simulation tolerance relaxed to achieve convergence from 1.6643312521972757e-03 to 1.6643312521972856e-03 seconds.
Warning: Simulation tolerance relaxed to achieve convergence from 1.6643312521972856e-03 to 1.6643312521972956e-03 seconds.
Warning: Simulation tolerance relaxed to achieve convergence from 1.6643312521972956e-03 to 1.6643312521973056e-03 seconds.
Warning: Simulation tolerance relaxed to achieve convergence from 1.6643312521973056e-03 to 1.6643312521973156e-03 seconds.
Warning: Simulation tolerance relaxed to achieve convergence from 1.6643312521973156e-03 to 1.6643312521973255e-03 seconds.
Warning: Simulation tolerance relaxed to achieve convergence from 1.6643312521973255e-03 to 1.6643312521973355e-03 seconds.
Warning: Simulation tolerance relaxed to achieve convergence from 1.6643312521973355e-03 to 1.6643312521973455e-03 seconds.
Warning: Simulation tolerance relaxed to achieve convergence from 1.6643312521973455e-03 to 1.6643312521973555e-03 seconds.
Warning: Simulation tolerance relaxed to achieve convergence from 1.6643312521973555e-03 to 1.6643312521973654e-03 seconds.
Warning: Simulation tolerance relaxed to achieve convergence from 1.6643312521973654e-03 to 1.6643312521973754e-03 seconds.
Warning: Simulation tolerance relaxed to achieve convergence from 1.6643312521973754e-03 to 1.6643312521973754e-03 seconds.

Simulation stopped by user.
Total elapsed time: 126.452 seconds.

Files loaded:
C:\Users\Alvaro PC\Documents\GitHub\Elec-Pot\Module 4\Simulation\Simulation.net
C:\Users\Alvaro PC\AppData\Local\LTspice\lib\cmp\standard.dio
C:\Users\Alvaro PC\AppData\Local\LTspice\lib\cmp\standard.mos
C:\Users\Alvaro PC\Desktop\TL431\TL431.mod

