LTspice 24.1.9 for Windows
Circuit: C:\Users\Alvaro PC\Documents\LTspice\rectificador monofasico de onda completa_1N5408.net
Start Time: Wed Jul 30 09:33:29 2025
solver = Normal
Maximum thread count: 2
tnom = 27
temp = 27
method = trap
.OP point found by inspection.
Total elapsed time: 0.302 seconds.

Files loaded:
C:\Users\Alvaro PC\Documents\LTspice\rectificador monofasico de onda completa_1N5408.net
C:\Users\Alvaro PC\AppData\Local\LTspice\lib\cmp\standard.dio

