LTspice 24.1.9 for Windows
Circuit: C:\Users\Alvaro PC\Documents\GitHub\Elec-Pot\Modulo 6 Controlled Rectifier\Simulation\Simulation.net
Start Time: Wed Oct 22 17:23:13 2025
solver = Normal
Maximum thread count: 2
tnom = 27
temp = 27
method = trap
.OP point found by inspection.
Total elapsed time: 12.746 seconds.

Files loaded:
C:\Users\Alvaro PC\Documents\GitHub\Elec-Pot\Modulo 6 Controlled Rectifier\Simulation\Simulation.net

