LTspice 24.1.9 for Windows
Circuit: D:\Doc\202520\Electronica de Potencias\LTspice\Tutoriales\Tutorial1.net
Start Time: Sat Jul 19 15:26:08 2025
solver = Normal
Maximum thread count: 12
tnom = 27
temp = 27
method = trap
.OP point found by inspection.
Total elapsed time: 0.075 seconds.

Files loaded:
D:\Doc\202520\Electronica de Potencias\LTspice\Tutoriales\Tutorial1.net

