LTspice 24.1.9 for Windows
Circuit: D:\Doc\202520\Electronica de Potencias\ElecPotGITHUB\Elec-Pot\Tutorial\LTspice Basics\Tutorial1.net
Start Time: Sun Jul 20 19:05:37 2025
solver = Normal
Maximum thread count: 12
tnom = 27
temp = 27
method = trap
.OP point found by inspection.
Total elapsed time: 0.056 seconds.

Files loaded:
D:\Doc\202520\Electronica de Potencias\ElecPotGITHUB\Elec-Pot\Tutorial\LTspice Basics\Tutorial1.net

