LTspice 24.1.9 for Windows
Circuit: C:\Users\Alvaro PC\Documents\GitHub\Elec-Pot\Module 5 Thyristor\Simulation\SCR.net
Start Time: Tue Oct  7 11:45:33 2025
solver = Normal
Maximum thread count: 2
tnom = 27
temp = 27
method = trap
.OP point found by inspection.
Total elapsed time: 0.454 seconds.

Files loaded:
C:\Users\Alvaro PC\Documents\GitHub\Elec-Pot\Module 5 Thyristor\Simulation\SCR.net
C:\Users\Alvaro PC\AppData\Local\LTspice\lib\cmp\standard.dio

